CHEMBL476553
  -OEChem-07121202273D

 48 51  0     0  0  0  0  0  0999 V2000
   -0.0173    1.4248    0.0099 C   0  0  0  0  0  0  0  0  0  0  0  0
    0.0021   -0.0041    0.0020 O   0  0  0  0  0  0  0  0  0  0  0  0
    0.6069   -0.6082   -1.0576 C   0  0  0  0  0  0  0  0  0  0  0  0
   -0.1341   -0.9228   -2.1955 C   0  0  0  0  0  0  0  0  0  0  0  0
    0.4680   -1.5373   -3.2817 C   0  0  0  0  0  0  0  0  0  0  0  0
    1.8192   -1.8455   -3.2449 C   0  0  0  0  0  0  0  0  0  0  0  0
    2.5701   -1.5300   -2.0993 C   0  0  0  0  0  0  0  0  0  0  0  0
    1.9594   -0.9043   -1.0058 C   0  0  0  0  0  0  0  0  0  0  0  0
    2.6860   -0.5946    0.0992 O   0  0  0  0  0  0  0  0  0  0  0  0
    4.0037   -1.8673   -2.0840 C   0  0  0  0  0  0  0  0  0  0  0  0
    4.7037   -1.6168   -1.1160 O   0  0  0  0  0  0  0  0  0  0  0  0
    4.5378   -2.4935   -3.2347 C   0  0  0  0  0  0  0  0  0  0  0  0
    3.7251   -2.7566   -4.2935 C   0  0  0  0  0  0  0  0  0  0  0  0
    2.4195   -2.4447   -4.2958 O   0  0  0  0  0  0  0  0  0  0  0  0
    4.3006   -3.4096   -5.4844 C   0  0  0  0  0  0  0  0  0  0  0  0
    5.6553   -3.7518   -5.5096 C   0  0  0  0  0  0  0  0  0  0  0  0
    6.1911   -4.3622   -6.6230 C   0  0  0  0  0  0  0  0  0  0  0  0
    5.3881   -4.6387   -7.7210 C   0  0  0  0  0  0  0  0  0  0  0  0
    4.0362   -4.2998   -7.7029 C   0  0  0  0  0  0  0  0  0  0  0  0
    3.4910   -3.6928   -6.5879 C   0  0  0  0  0  0  0  0  0  0  0  0
    3.2526   -4.5713   -8.7808 O   0  0  0  0  0  0  0  0  0  0  0  0
    5.9212   -5.2406   -8.8160 O   0  0  0  0  0  0  0  0  0  0  0  0
   -0.3470   -1.8714   -4.5044 C   0  0  0  0  0  0  0  0  0  0  0  0
   -0.3137   -0.7094   -5.4633 C   0  0  0  0  0  0  0  0  0  0  0  0
   -1.2687    0.2863   -5.3762 C   0  0  0  0  0  0  0  0  0  0  0  0
   -1.2381    1.3522   -6.2558 C   0  0  0  0  0  0  0  0  0  0  0  0
   -0.2523    1.4228   -7.2222 C   0  0  0  0  0  0  0  0  0  0  0  0
    0.7033    0.4277   -7.3088 C   0  0  0  0  0  0  0  0  0  0  0  0
    0.6752   -0.6361   -6.4265 C   0  0  0  0  0  0  0  0  0  0  0  0
   -1.4586   -0.6248   -2.2398 O   0  0  0  0  0  0  0  0  0  0  0  0
    1.0053    1.8021    0.0021 H   0  0  0  0  0  0  0  0  0  0  0  0
   -0.5445    1.7859   -0.8732 H   0  0  0  0  0  0  0  0  0  0  0  0
   -0.5275    1.7763    0.9067 H   0  0  0  0  0  0  0  0  0  0  0  0
    2.7099   -1.2967    0.7638 H   0  0  0  0  0  0  0  0  0  0  0  0
    5.5836   -2.7605   -3.2725 H   0  0  0  0  0  0  0  0  0  0  0  0
    6.2824   -3.5375   -4.6569 H   0  0  0  0  0  0  0  0  0  0  0  0
    7.2383   -4.6258   -6.6414 H   0  0  0  0  0  0  0  0  0  0  0  0
    2.4426   -3.4341   -6.5707 H   0  0  0  0  0  0  0  0  0  0  0  0
    2.8321   -5.4416   -8.7521 H   0  0  0  0  0  0  0  0  0  0  0  0
    5.8820   -6.2065   -8.7921 H   0  0  0  0  0  0  0  0  0  0  0  0
    0.0700   -2.7543   -4.9889 H   0  0  0  0  0  0  0  0  0  0  0  0
   -1.3776   -2.0708   -4.2108 H   0  0  0  0  0  0  0  0  0  0  0  0
   -2.0389    0.2311   -4.6211 H   0  0  0  0  0  0  0  0  0  0  0  0
   -1.9847    2.1297   -6.1881 H   0  0  0  0  0  0  0  0  0  0  0  0
   -0.2288    2.2553   -7.9099 H   0  0  0  0  0  0  0  0  0  0  0  0
    1.4733    0.4826   -8.0641 H   0  0  0  0  0  0  0  0  0  0  0  0
    1.4240   -1.4117   -6.4917 H   0  0  0  0  0  0  0  0  0  0  0  0
   -1.6525    0.2534   -2.5951 H   0  0  0  0  0  0  0  0  0  0  0  0
  1  2  1  0  0  0  0
  1 31  1  0  0  0  0
  1 32  1  0  0  0  0
  1 33  1  0  0  0  0
  2  3  1  0  0  0  0
  3  8  2  0  0  0  0
  3  4  1  0  0  0  0
  4  5  2  0  0  0  0
  4 30  1  0  0  0  0
  5  6  1  0  0  0  0
  5 23  1  0  0  0  0
  6 14  1  0  0  0  0
  6  7  2  0  0  0  0
  7  8  1  0  0  0  0
  7 10  1  0  0  0  0
  8  9  1  0  0  0  0
  9 34  1  0  0  0  0
 10 11  2  0  0  0  0
 10 12  1  0  0  0  0
 12 13  2  0  0  0  0
 12 35  1  0  0  0  0
 13 14  1  0  0  0  0
 13 15  1  0  0  0  0
 15 20  2  0  0  0  0
 15 16  1  0  0  0  0
 16 17  2  0  0  0  0
 16 36  1  0  0  0  0
 17 18  1  0  0  0  0
 17 37  1  0  0  0  0
 18 19  2  0  0  0  0
 18 22  1  0  0  0  0
 19 20  1  0  0  0  0
 19 21  1  0  0  0  0
 20 38  1  0  0  0  0
 21 39  1  0  0  0  0
 22 40  1  0  0  0  0
 23 24  1  0  0  0  0
 23 41  1  0  0  0  0
 23 42  1  0  0  0  0
 24 29  2  0  0  0  0
 24 25  1  0  0  0  0
 25 26  2  0  0  0  0
 25 43  1  0  0  0  0
 26 27  1  0  0  0  0
 26 44  1  0  0  0  0
 27 28  2  0  0  0  0
 27 45  1  0  0  0  0
 28 29  1  0  0  0  0
 28 46  1  0  0  0  0
 29 47  1  0  0  0  0
 30 48  1  0  0  0  0
M  END
$$$$
CHEMBL82242
  -OEChem-07121202273D

 52 55  0     1  0  0  0  0  0999 V2000
    3.7861   -3.3436    3.1034 C   0  0  0  0  0  0  0  0  0  0  0  0
    2.6050   -3.2915    2.1322 C   0  0  1  0  0  0  0  0  0  0  0  0
    2.2897   -2.2567    1.9986 H   0  0  0  0  0  0  0  0  0  0  0  0
    3.0285   -3.8747    0.7816 C   0  0  1  0  0  0  0  0  0  0  0  0
    3.3823   -4.8962    0.9207 H   0  0  0  0  0  0  0  0  0  0  0  0
    1.8249   -3.8744   -0.1659 C   0  0  2  0  0  0  0  0  0  0  0  0
    1.5017   -2.8489   -0.3445 H   0  0  0  0  0  0  0  0  0  0  0  0
    0.6827   -4.6671    0.4771 C   0  0  2  0  0  0  0  0  0  0  0  0
   -0.1965   -4.6256   -0.1657 H   0  0  0  0  0  0  0  0  0  0  0  0
    0.3498   -4.0533    1.8395 C   0  0  1  0  0  0  0  0  0  0  0  0
   -0.4333   -4.6393    2.3206 H   0  0  0  0  0  0  0  0  0  0  0  0
    1.5194   -4.0560    2.6606 O   0  0  0  0  0  0  0  0  0  0  0  0
   -0.1027   -2.7099    1.6592 O   0  0  0  0  0  0  0  0  0  0  0  0
   -0.7151   -2.1166    2.7199 C   0  0  0  0  0  0  0  0  0  0  0  0
   -1.9215   -2.6522    3.2408 C   0  0  0  0  0  0  0  0  0  0  0  0
   -2.4346   -3.6481    2.7559 O   0  0  0  0  0  0  0  0  0  0  0  0
   -2.5296   -1.9605    4.3885 C   0  0  0  0  0  0  0  0  0  0  0  0
   -3.7203   -2.4206    4.9665 C   0  0  0  0  0  0  0  0  0  0  0  0
   -4.2600   -1.7436    6.0439 C   0  0  0  0  0  0  0  0  0  0  0  0
   -3.6243   -0.6142    6.5492 C   0  0  0  0  0  0  0  0  0  0  0  0
   -2.4465   -0.1534    5.9826 C   0  0  0  0  0  0  0  0  0  0  0  0
   -1.8893   -0.8189    4.9011 C   0  0  0  0  0  0  0  0  0  0  0  0
   -0.7426   -0.3828    4.3388 O   0  0  0  0  0  0  0  0  0  0  0  0
   -0.1719   -1.0067    3.2941 C   0  0  0  0  0  0  0  0  0  0  0  0
    1.0856   -0.4666    2.7451 C   0  0  0  0  0  0  0  0  0  0  0  0
    1.2224   -0.2725    1.3677 C   0  0  0  0  0  0  0  0  0  0  0  0
    2.3984    0.2329    0.8566 C   0  0  0  0  0  0  0  0  0  0  0  0
    3.4487    0.5501    1.7066 C   0  0  0  0  0  0  0  0  0  0  0  0
    3.3195    0.3592    3.0811 C   0  0  0  0  0  0  0  0  0  0  0  0
    2.1416   -0.1421    3.6014 C   0  0  0  0  0  0  0  0  0  0  0  0
    4.3508    0.6711    3.9109 O   0  0  0  0  0  0  0  0  0  0  0  0
    4.6061    1.0477    1.1975 O   0  0  0  0  0  0  0  0  0  0  0  0
   -4.1634    0.0435    7.6074 O   0  0  0  0  0  0  0  0  0  0  0  0
   -4.3392   -3.5225    4.4718 O   0  0  0  0  0  0  0  0  0  0  0  0
    1.0839   -6.0277    0.6502 O   0  0  0  0  0  0  0  0  0  0  0  0
    2.1924   -4.4826   -1.4057 O   0  0  0  0  0  0  0  0  0  0  0  0
    4.0762   -3.0781    0.2249 O   0  0  0  0  0  0  0  0  0  0  0  0
    4.1013   -4.3785    3.2369 H   0  0  0  0  0  0  0  0  0  0  0  0
    4.6142   -2.7608    2.7001 H   0  0  0  0  0  0  0  0  0  0  0  0
    3.4843   -2.9288    4.0651 H   0  0  0  0  0  0  0  0  0  0  0  0
   -5.1776   -2.0921    6.4943 H   0  0  0  0  0  0  0  0  0  0  0  0
   -1.9622    0.7247    6.3837 H   0  0  0  0  0  0  0  0  0  0  0  0
    0.4068   -0.5188    0.7039 H   0  0  0  0  0  0  0  0  0  0  0  0
    2.5030    0.3822   -0.2079 H   0  0  0  0  0  0  0  0  0  0  0  0
    2.0387   -0.2867    4.6667 H   0  0  0  0  0  0  0  0  0  0  0  0
    4.3331    1.5820    4.2351 H   0  0  0  0  0  0  0  0  0  0  0  0
    4.6253    2.0124    1.1341 H   0  0  0  0  0  0  0  0  0  0  0  0
   -3.8549   -0.2748    8.4669 H   0  0  0  0  0  0  0  0  0  0  0  0
   -4.0537   -4.3509    4.8809 H   0  0  0  0  0  0  0  0  0  0  0  0
    0.3820   -6.6060    0.9787 H   0  0  0  0  0  0  0  0  0  0  0  0
    1.4763   -4.5164   -2.0547 H   0  0  0  0  0  0  0  0  0  0  0  0
    4.8694   -3.0306    0.7760 H   0  0  0  0  0  0  0  0  0  0  0  0
  1  2  1  0  0  0  0
  1 38  1  0  0  0  0
  1 39  1  0  0  0  0
  1 40  1  0  0  0  0
  2  3  1  0  0  0  0
  2 12  1  0  0  0  0
  2  4  1  0  0  0  0
  4  5  1  0  0  0  0
  4  6  1  0  0  0  0
  4 37  1  0  0  0  0
  6  7  1  0  0  0  0
  6  8  1  0  0  0  0
  6 36  1  0  0  0  0
  8  9  1  0  0  0  0
  8 10  1  0  0  0  0
  8 35  1  0  0  0  0
 10 11  1  0  0  0  0
 10 12  1  0  0  0  0
 10 13  1  0  0  0  0
 13 14  1  0  0  0  0
 14 24  2  0  0  0  0
 14 15  1  0  0  0  0
 15 16  2  0  0  0  0
 15 17  1  0  0  0  0
 17 22  2  0  0  0  0
 17 18  1  0  0  0  0
 18 19  2  0  0  0  0
 18 34  1  0  0  0  0
 19 20  1  0  0  0  0
 19 41  1  0  0  0  0
 20 21  2  0  0  0  0
 20 33  1  0  0  0  0
 21 22  1  0  0  0  0
 21 42  1  0  0  0  0
 22 23  1  0  0  0  0
 23 24  1  0  0  0  0
 24 25  1  0  0  0  0
 25 30  2  0  0  0  0
 25 26  1  0  0  0  0
 26 27  2  0  0  0  0
 26 43  1  0  0  0  0
 27 28  1  0  0  0  0
 27 44  1  0  0  0  0
 28 29  2  0  0  0  0
 28 32  1  0  0  0  0
 29 30  1  0  0  0  0
 29 31  1  0  0  0  0
 30 45  1  0  0  0  0
 31 46  1  0  0  0  0
 32 47  1  0  0  0  0
 33 48  1  0  0  0  0
 34 49  1  0  0  0  0
 35 50  1  0  0  0  0
 36 51  1  0  0  0  0
 37 52  1  0  0  0  0
M  END
$$$$
CHEMBL8370
  -OEChem-07121202273D

 35 36  0     0  0  0  0  0  0999 V2000
   -0.0258    1.3299    0.2008 C   0  0  0  0  0  0  0  0  0  0  0  0
    1.1725    2.0069    0.2972 C   0  0  0  0  0  0  0  0  0  0  0  0
    2.3362    1.4370   -0.2216 C   0  0  0  0  0  0  0  0  0  0  0  0
    2.2789    0.1842   -0.8351 C   0  0  0  0  0  0  0  0  0  0  0  0
    1.0745   -0.4819   -0.9249 C   0  0  0  0  0  0  0  0  0  0  0  0
   -0.0756    0.0889   -0.4085 C   0  0  0  0  0  0  0  0  0  0  0  0
    1.0118   -1.8100   -1.5754 N   0  3  0  0  0  0  0  0  0  0  0  0
    2.0156   -2.3097   -2.0274 O   0  0  0  0  0  0  0  0  0  0  0  0
   -0.0433   -2.3950   -1.6548 O   0  5  0  0  0  0  0  0  0  0  0  0
    3.6234    2.1568   -0.1223 C   0  0  0  0  0  0  0  0  0  0  0  0
    4.6641    1.5333   -0.0457 O   0  0  0  0  0  0  0  0  0  0  0  0
    3.6432    3.5044   -0.1166 N   0  0  0  0  0  0  0  0  0  0  0  0
    2.3861    4.2553   -0.0705 C   0  0  0  0  0  0  0  0  0  0  0  0
    2.1059    4.6792    1.3483 C   0  0  0  0  0  0  0  0  0  0  0  0
    2.8841    4.3816    2.2384 O   0  0  0  0  0  0  0  0  0  0  0  0
    1.1010    5.3197    1.6060 O   0  5  0  0  0  0  0  0  0  0  0  0
    4.8638    4.1859   -0.1547 C   0  0  0  0  0  0  0  0  0  0  0  0
    4.8851    5.5686   -0.2839 C   0  0  0  0  0  0  0  0  0  0  0  0
    6.0921    6.2387   -0.3213 C   0  0  0  0  0  0  0  0  0  0  0  0
    7.2787    5.5343   -0.2306 C   0  0  0  0  0  0  0  0  0  0  0  0
    7.2610    4.1576   -0.1018 C   0  0  0  0  0  0  0  0  0  0  0  0
    6.0572    3.4821   -0.0576 C   0  0  0  0  0  0  0  0  0  0  0  0
    8.5707    6.2556   -0.2719 N   0  3  0  0  0  0  0  0  0  0  0  0
    8.5877    7.4592   -0.3849 O   0  0  0  0  0  0  0  0  0  0  0  0
    9.6088    5.6411   -0.1927 O   0  5  0  0  0  0  0  0  0  0  0  0
   -0.9261    1.7678    0.6058 H   0  0  0  0  0  0  0  0  0  0  0  0
    1.2100    2.9759    0.7727 H   0  0  0  0  0  0  0  0  0  0  0  0
    3.1757   -0.2621   -1.2389 H   0  0  0  0  0  0  0  0  0  0  0  0
   -1.0161   -0.4369   -0.4814 H   0  0  0  0  0  0  0  0  0  0  0  0
    2.4669    5.1383   -0.7043 H   0  0  0  0  0  0  0  0  0  0  0  0
    1.5726    3.6242   -0.4285 H   0  0  0  0  0  0  0  0  0  0  0  0
    3.9587    6.1192   -0.3555 H   0  0  0  0  0  0  0  0  0  0  0  0
    6.1094    7.3138   -0.4217 H   0  0  0  0  0  0  0  0  0  0  0  0
    8.1895    3.6104   -0.0316 H   0  0  0  0  0  0  0  0  0  0  0  0
    6.0439    2.4073    0.0478 H   0  0  0  0  0  0  0  0  0  0  0  0
  1  6  2  0  0  0  0
  1  2  1  0  0  0  0
  1 26  1  0  0  0  0
  2  3  2  0  0  0  0
  2 27  1  0  0  0  0
  3  4  1  0  0  0  0
  3 10  1  0  0  0  0
  4  5  2  0  0  0  0
  4 28  1  0  0  0  0
  5  6  1  0  0  0  0
  5  7  1  0  0  0  0
  6 29  1  0  0  0  0
  7  8  2  0  0  0  0
  7  9  1  0  0  0  0
 10 11  2  0  0  0  0
 10 12  1  0  0  0  0
 12 13  1  0  0  0  0
 12 17  1  0  0  0  0
 13 14  1  0  0  0  0
 13 30  1  0  0  0  0
 13 31  1  0  0  0  0
 14 15  2  0  0  0  0
 14 16  1  0  0  0  0
 17 22  2  0  0  0  0
 17 18  1  0  0  0  0
 18 19  2  0  0  0  0
 18 32  1  0  0  0  0
 19 20  1  0  0  0  0
 19 33  1  0  0  0  0
 20 21  2  0  0  0  0
 20 23  1  0  0  0  0
 21 22  1  0  0  0  0
 21 34  1  0  0  0  0
 22 35  1  0  0  0  0
 23 24  2  0  0  0  0
 23 25  1  0  0  0  0
M  CHG  5   7   1   9  -1  16  -1  23   1  25  -1
M  END
$$$$
CHEMBL69371
  -OEChem-07121202273D

 34 36  0     0  0  0  0  0  0999 V2000
   -0.0168    1.3860    0.0097 C   0  0  0  0  0  0  0  0  0  0  0  0
    1.1628    2.0841    0.0021 C   0  0  0  0  0  0  0  0  0  0  0  0
    2.3582    1.3546   -0.0132 C   0  0  0  0  0  0  0  0  0  0  0  0
    3.6647    2.0089   -0.0216 C   0  0  0  0  0  0  0  0  0  0  0  0
    4.7504    1.2934   -0.0359 N   0  0  0  0  0  0  0  0  0  0  0  0
    4.7306   -0.1016   -0.0433 N   0  0  0  0  0  0  0  0  0  0  0  0
    3.5745   -0.7964   -0.0364 C   0  0  0  0  0  0  0  0  0  0  0  0
    3.5830   -2.0143   -0.0431 O   0  0  0  0  0  0  0  0  0  0  0  0
    2.3023   -0.0561   -0.0203 C   0  0  0  0  0  0  0  0  0  0  0  0
    1.1308   -0.6781   -0.0132 N   0  0  0  0  0  0  0  0  0  0  0  0
    0.0021   -0.0041    0.0020 C   0  0  0  0  0  0  0  0  0  0  0  0
    6.0005   -0.8319   -0.0595 C   0  0  0  0  0  0  0  0  0  0  0  0
    6.4223   -1.0746   -1.4857 C   0  0  0  0  0  0  0  0  0  0  0  0
    6.1934   -2.3040   -2.0745 C   0  0  0  0  0  0  0  0  0  0  0  0
    6.5795   -2.5272   -3.3827 C   0  0  0  0  0  0  0  0  0  0  0  0
    7.1960   -1.5204   -4.1042 C   0  0  0  0  0  0  0  0  0  0  0  0
    7.4262   -0.2901   -3.5168 C   0  0  0  0  0  0  0  0  0  0  0  0
    7.0339   -0.0643   -2.2082 C   0  0  0  0  0  0  0  0  0  0  0  0
    7.2533    1.1392   -1.6349 F   0  0  0  0  0  0  0  0  0  0  0  0
    7.7244   -1.8273   -5.8938 Br  0  0  0  0  0  0  0  0  0  0  0  0
    3.7540    3.5133   -0.0143 C   0  0  0  0  0  0  0  0  0  0  0  0
    5.2020    3.9306   -0.0253 C   0  0  0  0  0  0  0  0  0  0  0  0
    6.0801    3.0849   -0.0380 O   0  0  0  0  0  0  0  0  0  0  0  0
    5.4953    5.1140   -0.0216 O   0  5  0  0  0  0  0  0  0  0  0  0
   -0.9585    1.9145    0.0260 H   0  0  0  0  0  0  0  0  0  0  0  0
    1.1702    3.1641    0.0075 H   0  0  0  0  0  0  0  0  0  0  0  0
   -0.9335   -0.5436    0.0081 H   0  0  0  0  0  0  0  0  0  0  0  0
    6.7640   -0.2443    0.4503 H   0  0  0  0  0  0  0  0  0  0  0  0
    5.8767   -1.7873    0.4504 H   0  0  0  0  0  0  0  0  0  0  0  0
    5.7129   -3.0908   -1.5119 H   0  0  0  0  0  0  0  0  0  0  0  0
    6.4003   -3.4882   -3.8418 H   0  0  0  0  0  0  0  0  0  0  0  0
    7.9080    0.4957   -4.0796 H   0  0  0  0  0  0  0  0  0  0  0  0
    3.2544    3.9112   -0.8976 H   0  0  0  0  0  0  0  0  0  0  0  0
    3.2707    3.9015    0.8823 H   0  0  0  0  0  0  0  0  0  0  0  0
  1 11  2  0  0  0  0
  1  2  1  0  0  0  0
  1 25  1  0  0  0  0
  2  3  2  0  0  0  0
  2 26  1  0  0  0  0
  3  9  1  0  0  0  0
  3  4  1  0  0  0  0
  4  5  2  0  0  0  0
  4 21  1  0  0  0  0
  5  6  1  0  0  0  0
  6  7  1  0  0  0  0
  6 12  1  0  0  0  0
  7  8  2  0  0  0  0
  7  9  1  0  0  0  0
  9 10  2  0  0  0  0
 10 11  1  0  0  0  0
 11 27  1  0  0  0  0
 12 13  1  0  0  0  0
 12 28  1  0  0  0  0
 12 29  1  0  0  0  0
 13 18  2  0  0  0  0
 13 14  1  0  0  0  0
 14 15  2  0  0  0  0
 14 30  1  0  0  0  0
 15 16  1  0  0  0  0
 15 31  1  0  0  0  0
 16 17  2  0  0  0  0
 16 20  1  0  0  0  0
 17 18  1  0  0  0  0
 17 32  1  0  0  0  0
 18 19  1  0  0  0  0
 21 22  1  0  0  0  0
 21 33  1  0  0  0  0
 21 34  1  0  0  0  0
 22 23  2  0  0  0  0
 22 24  1  0  0  0  0
M  CHG  1  24  -1
M  END
$$$$
CHEMBL69956
  -OEChem-07121202273D

 39 42  0     0  0  0  0  0  0999 V2000
   -0.0168    1.3860    0.0097 C   0  0  0  0  0  0  0  0  0  0  0  0
    1.1628    2.0841    0.0021 C   0  0  0  0  0  0  0  0  0  0  0  0
    2.3582    1.3546   -0.0132 C   0  0  0  0  0  0  0  0  0  0  0  0
    3.6647    2.0089   -0.0216 C   0  0  0  0  0  0  0  0  0  0  0  0
    4.7504    1.2934   -0.0359 N   0  0  0  0  0  0  0  0  0  0  0  0
    4.7306   -0.1016   -0.0433 N   0  0  0  0  0  0  0  0  0  0  0  0
    3.5745   -0.7964   -0.0364 C   0  0  0  0  0  0  0  0  0  0  0  0
    3.5830   -2.0143   -0.0431 O   0  0  0  0  0  0  0  0  0  0  0  0
    2.3023   -0.0561   -0.0203 C   0  0  0  0  0  0  0  0  0  0  0  0
    1.1308   -0.6781   -0.0132 N   0  0  0  0  0  0  0  0  0  0  0  0
    0.0021   -0.0041    0.0020 C   0  0  0  0  0  0  0  0  0  0  0  0
    6.0005   -0.8319   -0.0595 C   0  0  0  0  0  0  0  0  0  0  0  0
    6.4223   -1.0746   -1.4857 C   0  0  0  0  0  0  0  0  0  0  0  0
    7.1624   -0.3144   -2.2389 N   0  0  0  0  0  0  0  0  0  0  0  0
    7.4724   -0.6449   -3.5094 C   0  0  0  0  0  0  0  0  0  0  0  0
    8.2507    0.0474   -4.4606 C   0  0  0  0  0  0  0  0  0  0  0  0
    8.4420   -0.4682   -5.7058 C   0  0  0  0  0  0  0  0  0  0  0  0
    7.8848   -1.6820   -6.0839 C   0  0  0  0  0  0  0  0  0  0  0  0
    7.1162   -2.3899   -5.1790 C   0  0  0  0  0  0  0  0  0  0  0  0
    6.9172   -1.8781   -3.9198 C   0  0  0  0  0  0  0  0  0  0  0  0
    6.0485   -2.3938   -2.4618 S   0  0  0  0  0  0  0  0  0  0  0  0
    9.2787    0.2976   -6.6981 C   0  0  0  0  0  0  0  0  0  0  0  0
   10.6168   -0.0931   -6.5795 F   0  0  0  0  0  0  0  0  0  0  0  0
    8.8275    0.0283   -7.9946 F   0  0  0  0  0  0  0  0  0  0  0  0
    9.1686    1.6684   -6.4413 F   0  0  0  0  0  0  0  0  0  0  0  0
    3.7540    3.5133   -0.0143 C   0  0  0  0  0  0  0  0  0  0  0  0
    5.2020    3.9306   -0.0253 C   0  0  0  0  0  0  0  0  0  0  0  0
    6.0801    3.0849   -0.0380 O   0  0  0  0  0  0  0  0  0  0  0  0
    5.4953    5.1140   -0.0216 O   0  5  0  0  0  0  0  0  0  0  0  0
   -0.9585    1.9145    0.0260 H   0  0  0  0  0  0  0  0  0  0  0  0
    1.1702    3.1641    0.0075 H   0  0  0  0  0  0  0  0  0  0  0  0
   -0.9335   -0.5436    0.0081 H   0  0  0  0  0  0  0  0  0  0  0  0
    6.7640   -0.2443    0.4503 H   0  0  0  0  0  0  0  0  0  0  0  0
    5.8767   -1.7873    0.4504 H   0  0  0  0  0  0  0  0  0  0  0  0
    8.6984    0.9947   -4.1988 H   0  0  0  0  0  0  0  0  0  0  0  0
    8.0502   -2.0703   -7.0780 H   0  0  0  0  0  0  0  0  0  0  0  0
    6.6766   -3.3358   -5.4591 H   0  0  0  0  0  0  0  0  0  0  0  0
    3.2544    3.9112   -0.8976 H   0  0  0  0  0  0  0  0  0  0  0  0
    3.2707    3.9015    0.8823 H   0  0  0  0  0  0  0  0  0  0  0  0
  1 11  2  0  0  0  0
  1  2  1  0  0  0  0
  1 30  1  0  0  0  0
  2  3  2  0  0  0  0
  2 31  1  0  0  0  0
  3  9  1  0  0  0  0
  3  4  1  0  0  0  0
  4  5  2  0  0  0  0
  4 26  1  0  0  0  0
  5  6  1  0  0  0  0
  6  7  1  0  0  0  0
  6 12  1  0  0  0  0
  7  8  2  0  0  0  0
  7  9  1  0  0  0  0
  9 10  2  0  0  0  0
 10 11  1  0  0  0  0
 11 32  1  0  0  0  0
 12 13  1  0  0  0  0
 12 33  1  0  0  0  0
 12 34  1  0  0  0  0
 13 21  1  0  0  0  0
 13 14  2  0  0  0  0
 14 15  1  0  0  0  0
 15 20  2  0  0  0  0
 15 16  1  0  0  0  0
 16 17  2  0  0  0  0
 16 35  1  0  0  0  0
 17 18  1  0  0  0  0
 17 22  1  0  0  0  0
 18 19  2  0  0  0  0
 18 36  1  0  0  0  0
 19 20  1  0  0  0  0
 19 37  1  0  0  0  0
 20 21  1  0  0  0  0
 22 23  1  0  0  0  0
 22 24  1  0  0  0  0
 22 25  1  0  0  0  0
 26 27  1  0  0  0  0
 26 38  1  0  0  0  0
 26 39  1  0  0  0  0
 27 28  2  0  0  0  0
 27 29  1  0  0  0  0
M  CHG  1  29  -1
M  END
$$$$
CHEMBL81536
  -OEChem-07121202273D

 26 28  0     1  0  0  0  0  0999 V2000
   -0.0166    1.3744    0.0096 C   0  0  0  0  0  0  0  0  0  0  0  0
    1.1675    2.1080    0.0022 C   0  0  0  0  0  0  0  0  0  0  0  0
    2.3721    1.4300   -0.0036 C   0  0  0  0  0  0  0  0  0  0  0  0
    2.3896    0.0352   -0.0225 C   0  0  0  0  0  0  0  0  0  0  0  0
    1.2110   -0.6807   -0.0189 C   0  0  0  0  0  0  0  0  0  0  0  0
    0.0021   -0.0041    0.0020 C   0  0  0  0  0  0  0  0  0  0  0  0
   -1.4894   -0.8923    0.0180 Cl  0  0  0  0  0  0  0  0  0  0  0  0
    1.2417   -2.4163   -0.0392 Cl  0  0  0  0  0  0  0  0  0  0  0  0
    3.9211    2.2756    0.0332 S   0  0  0  0  0  0  0  0  0  0  0  0
    3.4678    3.9994   -0.3202 C   0  0  0  0  0  0  0  0  0  0  0  0
    2.2430    4.3332    0.5442 C   0  0  0  0  0  0  0  0  0  0  0  0
    1.0324    3.6024   -0.0111 C   0  0  2  0  0  0  0  0  0  0  0  0
   -0.2109    4.0077    0.7554 C   0  0  0  0  0  0  0  0  0  0  0  0
   -0.4338    3.8330    1.9342 O   0  0  0  0  0  0  0  0  0  0  0  0
   -1.0171    4.6028   -0.1458 N   0  0  0  0  0  0  0  0  0  0  0  0
   -0.4612    4.6308   -1.3626 C   0  0  0  0  0  0  0  0  0  0  0  0
   -0.9974    5.1162   -2.3394 O   0  0  0  0  0  0  0  0  0  0  0  0
    0.7572    4.0612   -1.3840 N   0  0  0  0  0  0  0  0  0  0  0  0
   -0.9636    1.8933    0.0260 H   0  0  0  0  0  0  0  0  0  0  0  0
    3.3340   -0.4884   -0.0405 H   0  0  0  0  0  0  0  0  0  0  0  0
    4.2950    4.6610   -0.0630 H   0  0  0  0  0  0  0  0  0  0  0  0
    3.2181    4.1087   -1.3755 H   0  0  0  0  0  0  0  0  0  0  0  0
    2.4228    4.0135    1.5707 H   0  0  0  0  0  0  0  0  0  0  0  0
    2.0624    5.4079    0.5216 H   0  0  0  0  0  0  0  0  0  0  0  0
   -1.8925    4.9654    0.0618 H   0  0  0  0  0  0  0  0  0  0  0  0
    1.3410    3.9703   -2.1533 H   0  0  0  0  0  0  0  0  0  0  0  0
  1  6  2  0  0  0  0
  1  2  1  0  0  0  0
  1 19  1  0  0  0  0
  2 12  1  0  0  0  0
  2  3  2  0  0  0  0
  3  4  1  0  0  0  0
  3  9  1  0  0  0  0
  4  5  2  0  0  0  0
  4 20  1  0  0  0  0
  5  6  1  0  0  0  0
  5  8  1  0  0  0  0
  6  7  1  0  0  0  0
  9 10  1  0  0  0  0
 10 11  1  0  0  0  0
 10 21  1  0  0  0  0
 10 22  1  0  0  0  0
 11 12  1  0  0  0  0
 11 23  1  0  0  0  0
 11 24  1  0  0  0  0
 12 18  1  0  0  0  0
 12 13  1  0  0  0  0
 13 14  2  0  0  0  0
 13 15  1  0  0  0  0
 15 16  1  0  0  0  0
 15 25  1  0  0  0  0
 16 17  2  0  0  0  0
 16 18  1  0  0  0  0
 18 26  1  0  0  0  0
M  END
$$$$
CHEMBL81536
  -OEChem-07121202273D

 26 28  0     1  0  0  0  0  0999 V2000
   -0.0166    1.3746    0.0096 C   0  0  0  0  0  0  0  0  0  0  0  0
    1.1677    2.1081    0.0022 C   0  0  0  0  0  0  0  0  0  0  0  0
    2.3720    1.4293   -0.0047 C   0  0  0  0  0  0  0  0  0  0  0  0
    2.3891    0.0344   -0.0221 C   0  0  0  0  0  0  0  0  0  0  0  0
    1.2104   -0.6814   -0.0172 C   0  0  0  0  0  0  0  0  0  0  0  0
    0.0021   -0.0041    0.0020 C   0  0  0  0  0  0  0  0  0  0  0  0
   -1.4897   -0.8918    0.0175 Cl  0  0  0  0  0  0  0  0  0  0  0  0
    1.2404   -2.4171   -0.0359 Cl  0  0  0  0  0  0  0  0  0  0  0  0
    3.9213    2.2745    0.0261 S   0  0  0  0  0  0  0  0  0  0  0  0
    3.4673    3.9973   -0.3316 C   0  0  0  0  0  0  0  0  0  0  0  0
    2.2461    4.3345    0.5364 C   0  0  0  0  0  0  0  0  0  0  0  0
    1.0329    3.6025   -0.0118 C   0  0  1  0  0  0  0  0  0  0  0  0
    0.7459    4.0715   -1.4249 C   0  0  0  0  0  0  0  0  0  0  0  0
    1.4642    3.9563   -2.3947 O   0  0  0  0  0  0  0  0  0  0  0  0
   -0.4736    4.6425   -1.3789 N   0  0  0  0  0  0  0  0  0  0  0  0
   -0.9913    4.6020   -0.1458 C   0  0  0  0  0  0  0  0  0  0  0  0
   -2.0800    5.0571    0.1452 O   0  0  0  0  0  0  0  0  0  0  0  0
   -0.1722    4.0009    0.7358 N   0  0  0  0  0  0  0  0  0  0  0  0
   -0.9636    1.8935    0.0260 H   0  0  0  0  0  0  0  0  0  0  0  0
    3.3335   -0.4893   -0.0392 H   0  0  0  0  0  0  0  0  0  0  0  0
    4.2958    4.6594   -0.0799 H   0  0  0  0  0  0  0  0  0  0  0  0
    3.2136    4.1030   -1.3863 H   0  0  0  0  0  0  0  0  0  0  0  0
    2.4298    4.0182    1.5632 H   0  0  0  0  0  0  0  0  0  0  0  0
    2.0659    5.4092    0.5108 H   0  0  0  0  0  0  0  0  0  0  0  0
   -0.9210    5.0345   -2.1450 H   0  0  0  0  0  0  0  0  0  0  0  0
   -0.3422    3.8572    1.6799 H   0  0  0  0  0  0  0  0  0  0  0  0
  1  6  2  0  0  0  0
  1  2  1  0  0  0  0
  1 19  1  0  0  0  0
  2 12  1  0  0  0  0
  2  3  2  0  0  0  0
  3  4  1  0  0  0  0
  3  9  1  0  0  0  0
  4  5  2  0  0  0  0
  4 20  1  0  0  0  0
  5  6  1  0  0  0  0
  5  8  1  0  0  0  0
  6  7  1  0  0  0  0
  9 10  1  0  0  0  0
 10 11  1  0  0  0  0
 10 21  1  0  0  0  0
 10 22  1  0  0  0  0
 11 12  1  0  0  0  0
 11 23  1  0  0  0  0
 11 24  1  0  0  0  0
 12 18  1  0  0  0  0
 12 13  1  0  0  0  0
 13 14  2  0  0  0  0
 13 15  1  0  0  0  0
 15 16  1  0  0  0  0
 15 25  1  0  0  0  0
 16 17  2  0  0  0  0
 16 18  1  0  0  0  0
 18 26  1  0  0  0  0
M  END
$$$$
CHEMBL8381
  -OEChem-07121202273D

 25 27  0     0  0  0  0  0  0999 V2000
   -0.0168    1.3899    0.0097 C   0  0  0  0  0  0  0  0  0  0  0  0
    1.1197    2.1542    0.0029 C   0  0  0  0  0  0  0  0  0  0  0  0
    2.3699    1.5132   -0.0121 C   0  0  0  0  0  0  0  0  0  0  0  0
    3.6210    2.1528   -0.0190 C   0  0  0  0  0  0  0  0  0  0  0  0
    4.7495    1.3795   -0.0333 C   0  0  0  0  0  0  0  0  0  0  0  0
    4.7211   -0.0150   -0.0419 C   0  0  0  0  0  0  0  0  0  0  0  0
    3.5102   -0.6815   -0.0352 C   0  0  0  0  0  0  0  0  0  0  0  0
    2.3713    0.1179   -0.0200 C   0  0  0  0  0  0  0  0  0  0  0  0
    1.2134   -0.6736   -0.0140 C   0  0  0  0  0  0  0  0  0  0  0  0
    0.0021   -0.0041    0.0020 C   0  0  0  0  0  0  0  0  0  0  0  0
    1.7183   -2.0517   -0.0255 C   0  0  0  0  0  0  0  0  0  0  0  0
    1.0400   -3.0619   -0.0245 O   0  0  0  0  0  0  0  0  0  0  0  0
    3.0766   -2.0013   -0.0391 N   0  0  0  0  0  0  0  0  0  0  0  0
    3.9575   -3.1717   -0.0550 C   0  0  0  0  0  0  0  0  0  0  0  0
    4.2735   -3.5819    1.3603 C   0  0  0  0  0  0  0  0  0  0  0  0
    3.8061   -2.9546    2.2955 O   0  0  0  0  0  0  0  0  0  0  0  0
    4.9964   -4.5409    1.5701 O   0  5  0  0  0  0  0  0  0  0  0  0
   -0.9734    1.8910    0.0262 H   0  0  0  0  0  0  0  0  0  0  0  0
    1.0560    3.2323    0.0087 H   0  0  0  0  0  0  0  0  0  0  0  0
    3.6902    3.2306   -0.0135 H   0  0  0  0  0  0  0  0  0  0  0  0
    5.7100    1.8733   -0.0386 H   0  0  0  0  0  0  0  0  0  0  0  0
    5.6452   -0.5739   -0.0540 H   0  0  0  0  0  0  0  0  0  0  0  0
   -0.9244   -0.5591    0.0082 H   0  0  0  0  0  0  0  0  0  0  0  0
    3.4599   -3.9940   -0.5691 H   0  0  0  0  0  0  0  0  0  0  0  0
    4.8820   -2.9236   -0.5764 H   0  0  0  0  0  0  0  0  0  0  0  0
  1 10  2  0  0  0  0
  1  2  1  0  0  0  0
  1 18  1  0  0  0  0
  2  3  2  0  0  0  0
  2 19  1  0  0  0  0
  3  8  1  0  0  0  0
  3  4  1  0  0  0  0
  4  5  2  0  0  0  0
  4 20  1  0  0  0  0
  5  6  1  0  0  0  0
  5 21  1  0  0  0  0
  6  7  2  0  0  0  0
  6 22  1  0  0  0  0
  7 13  1  0  0  0  0
  7  8  1  0  0  0  0
  8  9  2  0  0  0  0
  9 10  1  0  0  0  0
  9 11  1  0  0  0  0
 10 23  1  0  0  0  0
 11 12  2  0  0  0  0
 11 13  1  0  0  0  0
 13 14  1  0  0  0  0
 14 15  1  0  0  0  0
 14 24  1  0  0  0  0
 14 25  1  0  0  0  0
 15 16  2  0  0  0  0
 15 17  1  0  0  0  0
M  CHG  1  17  -1
M  END
$$$$
CHEMBL138065
  -OEChem-07121202273D

 47 49  0     0  0  0  0  0  0999 V2000
    0.1401    1.2214    0.6269 C   0  0  0  0  0  0  0  0  0  0  0  0
   -0.0284   -0.1104    1.1169 O   0  0  0  0  0  0  0  0  0  0  0  0
   -1.2155   -0.7158    0.8600 C   0  0  0  0  0  0  0  0  0  0  0  0
   -2.1973   -0.0406    0.1439 C   0  0  0  0  0  0  0  0  0  0  0  0
   -3.4030   -0.6511   -0.1189 C   0  0  0  0  0  0  0  0  0  0  0  0
   -3.6390   -1.9521    0.3351 C   0  0  0  0  0  0  0  0  0  0  0  0
   -2.6489   -2.6276    1.0545 C   0  0  0  0  0  0  0  0  0  0  0  0
   -1.4441   -2.0116    1.3088 C   0  0  0  0  0  0  0  0  0  0  0  0
   -4.9301   -2.6102    0.0562 C   0  0  0  0  0  0  0  0  0  0  0  0
   -5.9383   -1.9419   -0.0720 O   0  0  0  0  0  0  0  0  0  0  0  0
   -4.9978   -4.0770   -0.0671 C   0  0  0  0  0  0  0  0  0  0  0  0
   -3.9032   -4.9699   -0.0811 C   0  0  0  0  0  0  0  0  0  0  0  0
   -4.4163   -6.2285   -0.2108 C   0  0  0  0  0  0  0  0  0  0  0  0
   -5.7895   -6.1317   -0.2765 N   0  0  0  0  0  0  0  0  0  0  0  0
   -6.1465   -4.8406   -0.1850 C   0  0  0  0  0  0  0  0  0  0  0  0
   -6.7137   -7.2595   -0.4180 C   0  0  0  0  0  0  0  0  0  0  0  0
   -7.0102   -7.8396    0.9408 C   0  0  0  0  0  0  0  0  0  0  0  0
   -6.4971   -7.3558    1.9354 O   0  0  0  0  0  0  0  0  0  0  0  0
   -7.7632   -8.7928    1.0457 O   0  5  0  0  0  0  0  0  0  0  0  0
   -3.6390   -7.4711   -0.2706 C   0  0  0  0  0  0  0  0  0  0  0  0
   -3.4425   -8.1156    0.7433 O   0  0  0  0  0  0  0  0  0  0  0  0
   -3.0948   -7.9401   -1.5605 C   0  0  0  0  0  0  0  0  0  0  0  0
   -3.4073   -7.2607   -2.7414 C   0  0  0  0  0  0  0  0  0  0  0  0
   -2.8974   -7.7011   -3.9422 C   0  0  0  0  0  0  0  0  0  0  0  0
   -2.0733   -8.8199   -3.9811 C   0  0  0  0  0  0  0  0  0  0  0  0
   -1.7604   -9.4986   -2.8090 C   0  0  0  0  0  0  0  0  0  0  0  0
   -2.2611   -9.0611   -1.6033 C   0  0  0  0  0  0  0  0  0  0  0  0
   -1.5731   -9.2510   -5.1668 O   0  0  0  0  0  0  0  0  0  0  0  0
   -0.7330  -10.4066   -5.1348 C   0  0  0  0  0  0  0  0  0  0  0  0
    1.1301    1.5865    0.9002 H   0  0  0  0  0  0  0  0  0  0  0  0
    0.0383    1.2249   -0.4583 H   0  0  0  0  0  0  0  0  0  0  0  0
   -0.6197    1.8686    1.0652 H   0  0  0  0  0  0  0  0  0  0  0  0
   -2.0141    0.9645   -0.2065 H   0  0  0  0  0  0  0  0  0  0  0  0
   -4.1654   -0.1256   -0.6747 H   0  0  0  0  0  0  0  0  0  0  0  0
   -2.8273   -3.6328    1.4070 H   0  0  0  0  0  0  0  0  0  0  0  0
   -0.6771   -2.5343    1.8609 H   0  0  0  0  0  0  0  0  0  0  0  0
   -2.8586   -4.7068   -0.0041 H   0  0  0  0  0  0  0  0  0  0  0  0
   -7.1578   -4.4620   -0.2033 H   0  0  0  0  0  0  0  0  0  0  0  0
   -7.6407   -6.9143   -0.8759 H   0  0  0  0  0  0  0  0  0  0  0  0
   -6.2599   -8.0242   -1.0484 H   0  0  0  0  0  0  0  0  0  0  0  0
   -4.0481   -6.3919   -2.7121 H   0  0  0  0  0  0  0  0  0  0  0  0
   -3.1384   -7.1768   -4.8551 H   0  0  0  0  0  0  0  0  0  0  0  0
   -1.1200  -10.3676   -2.8435 H   0  0  0  0  0  0  0  0  0  0  0  0
   -2.0137   -9.5861   -0.6925 H   0  0  0  0  0  0  0  0  0  0  0  0
   -0.4022  -10.6433   -6.1461 H   0  0  0  0  0  0  0  0  0  0  0  0
    0.1347  -10.2077   -4.5059 H   0  0  0  0  0  0  0  0  0  0  0  0
   -1.2909  -11.2501   -4.7282 H   0  0  0  0  0  0  0  0  0  0  0  0
  1  2  1  0  0  0  0
  1 30  1  0  0  0  0
  1 31  1  0  0  0  0
  1 32  1  0  0  0  0
  2  3  1  0  0  0  0
  3  8  2  0  0  0  0
  3  4  1  0  0  0  0
  4  5  2  0  0  0  0
  4 33  1  0  0  0  0
  5  6  1  0  0  0  0
  5 34  1  0  0  0  0
  6  7  2  0  0  0  0
  6  9  1  0  0  0  0
  7  8  1  0  0  0  0
  7 35  1  0  0  0  0
  8 36  1  0  0  0  0
  9 10  2  0  0  0  0
  9 11  1  0  0  0  0
 11 15  2  0  0  0  0
 11 12  1  0  0  0  0
 12 13  2  0  0  0  0
 12 37  1  0  0  0  0
 13 14  1  0  0  0  0
 13 20  1  0  0  0  0
 14 15  1  0  0  0  0
 14 16  1  0  0  0  0
 15 38  1  0  0  0  0
 16 17  1  0  0  0  0
 16 39  1  0  0  0  0
 16 40  1  0  0  0  0
 17 18  2  0  0  0  0
 17 19  1  0  0  0  0
 20 21  2  0  0  0  0
 20 22  1  0  0  0  0
 22 27  2  0  0  0  0
 22 23  1  0  0  0  0
 23 24  2  0  0  0  0
 23 41  1  0  0  0  0
 24 25  1  0  0  0  0
 24 42  1  0  0  0  0
 25 26  2  0  0  0  0
 25 28  1  0  0  0  0
 26 27  1  0  0  0  0
 26 43  1  0  0  0  0
 27 44  1  0  0  0  0
 28 29  1  0  0  0  0
 29 45  1  0  0  0  0
 29 46  1  0  0  0  0
 29 47  1  0  0  0  0
M  CHG  1  19  -1
M  END
$$$$
CHEMBL419474
  -OEChem-07121202273D

 32 35  0     1  0  0  0  0  0999 V2000
   -0.0164    1.3571    0.0095 C   0  0  0  0  0  0  0  0  0  0  0  0
    1.1686    2.0906    0.0021 C   0  0  0  0  0  0  0  0  0  0  0  0
    2.3787    1.4673   -0.0123 C   0  0  0  0  0  0  0  0  0  0  0  0
    2.4372    0.0639   -0.0198 C   0  0  0  0  0  0  0  0  0  0  0  0
    1.2336   -0.6809   -0.0116 C   0  0  0  0  0  0  0  0  0  0  0  0
    0.0021   -0.0041    0.0020 C   0  0  0  0  0  0  0  0  0  0  0  0
    1.2961   -2.0854   -0.0173 C   0  0  0  0  0  0  0  0  0  0  0  0
    2.5073   -2.7046   -0.0281 C   0  0  0  0  0  0  0  0  0  0  0  0
    3.7002   -1.9769   -0.0373 C   0  0  0  0  0  0  0  0  0  0  0  0
    3.6780   -0.6123   -0.0371 C   0  0  0  0  0  0  0  0  0  0  0  0
    4.8173    0.1253   -0.0598 O   0  0  0  0  0  0  0  0  0  0  0  0
    6.0397   -0.5091    0.3172 C   0  0  0  0  0  0  0  0  0  0  0  0
    6.1561   -1.8282   -0.4597 C   0  0  0  0  0  0  0  0  0  0  0  0
    5.0014   -2.7323   -0.0423 C   0  0  2  0  0  0  0  0  0  0  0  0
    4.9085   -3.9274   -0.9630 C   0  0  0  0  0  0  0  0  0  0  0  0
    4.7058   -3.9188   -2.1583 O   0  0  0  0  0  0  0  0  0  0  0  0
    5.0986   -5.0055   -0.1747 N   0  0  0  0  0  0  0  0  0  0  0  0
    5.2968   -4.6537    1.1019 C   0  0  0  0  0  0  0  0  0  0  0  0
    5.4901   -5.4493    2.0001 O   0  0  0  0  0  0  0  0  0  0  0  0
    5.2579   -3.3188    1.2790 N   0  0  0  0  0  0  0  0  0  0  0  0
   -0.1642   -3.0241   -0.0101 Cl  0  0  0  0  0  0  0  0  0  0  0  0
   -0.9633    1.8763    0.0259 H   0  0  0  0  0  0  0  0  0  0  0  0
    1.1262    3.1698    0.0076 H   0  0  0  0  0  0  0  0  0  0  0  0
    3.2889    2.0486   -0.0182 H   0  0  0  0  0  0  0  0  0  0  0  0
   -0.9237   -0.5602    0.0069 H   0  0  0  0  0  0  0  0  0  0  0  0
    2.5478   -3.7839   -0.0292 H   0  0  0  0  0  0  0  0  0  0  0  0
    6.8812    0.1383    0.0703 H   0  0  0  0  0  0  0  0  0  0  0  0
    6.0334   -0.7125    1.3880 H   0  0  0  0  0  0  0  0  0  0  0  0
    6.0992   -1.6305   -1.5301 H   0  0  0  0  0  0  0  0  0  0  0  0
    7.1046   -2.3108   -0.2244 H   0  0  0  0  0  0  0  0  0  0  0  0
    5.0928   -5.9217   -0.4932 H   0  0  0  0  0  0  0  0  0  0  0  0
    5.3759   -2.8399    2.1142 H   0  0  0  0  0  0  0  0  0  0  0  0
  1  6  2  0  0  0  0
  1  2  1  0  0  0  0
  1 22  1  0  0  0  0
  2  3  2  0  0  0  0
  2 23  1  0  0  0  0
  3  4  1  0  0  0  0
  3 24  1  0  0  0  0
  4 10  2  0  0  0  0
  4  5  1  0  0  0  0
  5  6  1  0  0  0  0
  5  7  2  0  0  0  0
  6 25  1  0  0  0  0
  7  8  1  0  0  0  0
  7 21  1  0  0  0  0
  8  9  2  0  0  0  0
  8 26  1  0  0  0  0
  9 14  1  0  0  0  0
  9 10  1  0  0  0  0
 10 11  1  0  0  0  0
 11 12  1  0  0  0  0
 12 13  1  0  0  0  0
 12 27  1  0  0  0  0
 12 28  1  0  0  0  0
 13 14  1  0  0  0  0
 13 29  1  0  0  0  0
 13 30  1  0  0  0  0
 14 20  1  0  0  0  0
 14 15  1  0  0  0  0
 15 16  2  0  0  0  0
 15 17  1  0  0  0  0
 17 18  1  0  0  0  0
 17 31  1  0  0  0  0
 18 19  2  0  0  0  0
 18 20  1  0  0  0  0
 20 32  1  0  0  0  0
M  END
$$$$
CHEMBL419474
  -OEChem-07121202273D

 31 34  0     1  0  0  0  0  0999 V2000
   -0.0164    1.3570    0.0095 C   0  0  0  0  0  0  0  0  0  0  0  0
    1.1686    2.0904    0.0021 C   0  0  0  0  0  0  0  0  0  0  0  0
    2.3788    1.4671   -0.0141 C   0  0  0  0  0  0  0  0  0  0  0  0
    2.4368    0.0636   -0.0223 C   0  0  0  0  0  0  0  0  0  0  0  0
    1.2333   -0.6813   -0.0116 C   0  0  0  0  0  0  0  0  0  0  0  0
    0.0021   -0.0041    0.0020 C   0  0  0  0  0  0  0  0  0  0  0  0
    1.2958   -2.0857   -0.0118 C   0  0  0  0  0  0  0  0  0  0  0  0
    2.5070   -2.7049   -0.0169 C   0  0  0  0  0  0  0  0  0  0  0  0
    3.6997   -1.9774   -0.0305 C   0  0  0  0  0  0  0  0  0  0  0  0
    3.6776   -0.6126   -0.0427 C   0  0  0  0  0  0  0  0  0  0  0  0
    4.8161    0.1248   -0.0856 O   0  0  0  0  0  0  0  0  0  0  0  0
    6.0458   -0.5030    0.2772 C   0  0  0  0  0  0  0  0  0  0  0  0
    6.1494   -1.8350   -0.4794 C   0  0  0  0  0  0  0  0  0  0  0  0
    5.0018   -2.7305   -0.0255 C   0  0  2  0  0  0  0  0  0  0  0  0
    4.9061   -3.9569   -0.9018 C   0  0  0  0  0  0  0  0  0  0  0  0
    4.6682   -3.9897   -2.2230 O   0  5  0  0  0  0  0  0  0  0  0  0
    5.1025   -4.9797   -0.1122 N   0  0  0  0  0  0  0  0  0  0  0  0
    5.3143   -4.6129    1.1587 C   0  0  0  0  0  0  0  0  0  0  0  0
    5.5206   -5.3959    2.0672 O   0  0  0  0  0  0  0  0  0  0  0  0
    5.2728   -3.2736    1.3127 N   0  0  0  0  0  0  0  0  0  0  0  0
   -0.1645   -3.0245   -0.0051 Cl  0  0  0  0  0  0  0  0  0  0  0  0
   -0.9633    1.8762    0.0259 H   0  0  0  0  0  0  0  0  0  0  0  0
    1.1262    3.1695    0.0090 H   0  0  0  0  0  0  0  0  0  0  0  0
    3.2890    2.0483   -0.0210 H   0  0  0  0  0  0  0  0  0  0  0  0
   -0.9238   -0.5600    0.0061 H   0  0  0  0  0  0  0  0  0  0  0  0
    2.5476   -3.7842   -0.0099 H   0  0  0  0  0  0  0  0  0  0  0  0
    6.8817    0.1408    0.0036 H   0  0  0  0  0  0  0  0  0  0  0  0
    6.0606   -0.6885    1.3512 H   0  0  0  0  0  0  0  0  0  0  0  0
    6.0738   -1.6557   -1.5519 H   0  0  0  0  0  0  0  0  0  0  0  0
    7.1018   -2.3140   -0.2522 H   0  0  0  0  0  0  0  0  0  0  0  0
    5.3966   -2.7736    2.1346 H   0  0  0  0  0  0  0  0  0  0  0  0
  1  6  2  0  0  0  0
  1  2  1  0  0  0  0
  1 22  1  0  0  0  0
  2  3  2  0  0  0  0
  2 23  1  0  0  0  0
  3  4  1  0  0  0  0
  3 24  1  0  0  0  0
  4 10  2  0  0  0  0
  4  5  1  0  0  0  0
  5  6  1  0  0  0  0
  5  7  2  0  0  0  0
  6 25  1  0  0  0  0
  7  8  1  0  0  0  0
  7 21  1  0  0  0  0
  8  9  2  0  0  0  0
  8 26  1  0  0  0  0
  9 14  1  0  0  0  0
  9 10  1  0  0  0  0
 10 11  1  0  0  0  0
 11 12  1  0  0  0  0
 12 13  1  0  0  0  0
 12 27  1  0  0  0  0
 12 28  1  0  0  0  0
 13 14  1  0  0  0  0
 13 29  1  0  0  0  0
 13 30  1  0  0  0  0
 14 20  1  0  0  0  0
 14 15  1  0  0  0  0
 15 16  1  0  0  0  0
 15 17  2  0  0  0  0
 17 18  1  0  0  0  0
 18 19  2  0  0  0  0
 18 20  1  0  0  0  0
 20 31  1  0  0  0  0
M  CHG  1  16  -1
M  END
$$$$
CHEMBL419474
  -OEChem-07121202273D

 32 35  0     1  0  0  0  0  0999 V2000
   -0.0164    1.3570    0.0095 C   0  0  0  0  0  0  0  0  0  0  0  0
    1.1687    2.0903    0.0021 C   0  0  0  0  0  0  0  0  0  0  0  0
    2.3789    1.4670   -0.0131 C   0  0  0  0  0  0  0  0  0  0  0  0
    2.4369    0.0635   -0.0218 C   0  0  0  0  0  0  0  0  0  0  0  0
    1.2333   -0.6813   -0.0133 C   0  0  0  0  0  0  0  0  0  0  0  0
    0.0021   -0.0041    0.0020 C   0  0  0  0  0  0  0  0  0  0  0  0
    1.2957   -2.0857   -0.0203 C   0  0  0  0  0  0  0  0  0  0  0  0
    2.5068   -2.7049   -0.0340 C   0  0  0  0  0  0  0  0  0  0  0  0
    3.6997   -1.9775   -0.0435 C   0  0  0  0  0  0  0  0  0  0  0  0
    3.6776   -0.6128   -0.0406 C   0  0  0  0  0  0  0  0  0  0  0  0
    4.8166    0.1249   -0.0619 O   0  0  0  0  0  0  0  0  0  0  0  0
    6.0411   -0.5110    0.3058 C   0  0  0  0  0  0  0  0  0  0  0  0
    6.1526   -1.8272   -0.4768 C   0  0  0  0  0  0  0  0  0  0  0  0
    5.0009   -2.7329   -0.0533 C   0  0  1  0  0  0  0  0  0  0  0  0
    5.2718   -3.3300    1.3082 C   0  0  0  0  0  0  0  0  0  0  0  0
    5.4214   -2.7352    2.3539 O   0  0  0  0  0  0  0  0  0  0  0  0
    5.3116   -4.6647    1.1146 N   0  0  0  0  0  0  0  0  0  0  0  0
    5.1044   -4.9831   -0.1690 C   0  0  0  0  0  0  0  0  0  0  0  0
    5.0939   -6.1234   -0.5894 O   0  0  0  0  0  0  0  0  0  0  0  0
    4.9092   -3.8979   -0.9424 N   0  0  0  0  0  0  0  0  0  0  0  0
   -0.1646   -3.0245   -0.0111 Cl  0  0  0  0  0  0  0  0  0  0  0  0
   -0.9632    1.8762    0.0259 H   0  0  0  0  0  0  0  0  0  0  0  0
    1.1264    3.1694    0.0082 H   0  0  0  0  0  0  0  0  0  0  0  0
    3.2891    2.0482   -0.0187 H   0  0  0  0  0  0  0  0  0  0  0  0
   -0.9238   -0.5600    0.0081 H   0  0  0  0  0  0  0  0  0  0  0  0
    2.5472   -3.7842   -0.0372 H   0  0  0  0  0  0  0  0  0  0  0  0
    6.8813    0.1371    0.0567 H   0  0  0  0  0  0  0  0  0  0  0  0
    6.0407   -0.7185    1.3759 H   0  0  0  0  0  0  0  0  0  0  0  0
    6.0882   -1.6257   -1.5460 H   0  0  0  0  0  0  0  0  0  0  0  0
    7.1029   -2.3105   -0.2498 H   0  0  0  0  0  0  0  0  0  0  0  0
    5.4709   -5.3131    1.8183 H   0  0  0  0  0  0  0  0  0  0  0  0
    4.7414   -3.8879   -1.8978 H   0  0  0  0  0  0  0  0  0  0  0  0
  1  6  2  0  0  0  0
  1  2  1  0  0  0  0
  1 22  1  0  0  0  0
  2  3  2  0  0  0  0
  2 23  1  0  0  0  0
  3  4  1  0  0  0  0
  3 24  1  0  0  0  0
  4 10  2  0  0  0  0
  4  5  1  0  0  0  0
  5  6  1  0  0  0  0
  5  7  2  0  0  0  0
  6 25  1  0  0  0  0
  7  8  1  0  0  0  0
  7 21  1  0  0  0  0
  8  9  2  0  0  0  0
  8 26  1  0  0  0  0
  9 14  1  0  0  0  0
  9 10  1  0  0  0  0
 10 11  1  0  0  0  0
 11 12  1  0  0  0  0
 12 13  1  0  0  0  0
 12 27  1  0  0  0  0
 12 28  1  0  0  0  0
 13 14  1  0  0  0  0
 13 29  1  0  0  0  0
 13 30  1  0  0  0  0
 14 20  1  0  0  0  0
 14 15  1  0  0  0  0
 15 16  2  0  0  0  0
 15 17  1  0  0  0  0
 17 18  1  0  0  0  0
 17 31  1  0  0  0  0
 18 19  2  0  0  0  0
 18 20  1  0  0  0  0
 20 32  1  0  0  0  0
M  END
$$$$
CHEMBL419474
  -OEChem-07121202273D

 31 34  0     1  0  0  0  0  0999 V2000
   -0.0164    1.3570    0.0095 C   0  0  0  0  0  0  0  0  0  0  0  0
    1.1687    2.0903    0.0021 C   0  0  0  0  0  0  0  0  0  0  0  0
    2.3789    1.4669   -0.0129 C   0  0  0  0  0  0  0  0  0  0  0  0
    2.4369    0.0635   -0.0211 C   0  0  0  0  0  0  0  0  0  0  0  0
    1.2333   -0.6813   -0.0134 C   0  0  0  0  0  0  0  0  0  0  0  0
    0.0021   -0.0041    0.0020 C   0  0  0  0  0  0  0  0  0  0  0  0
    1.2957   -2.0857   -0.0213 C   0  0  0  0  0  0  0  0  0  0  0  0
    2.5068   -2.7050   -0.0345 C   0  0  0  0  0  0  0  0  0  0  0  0
    3.6998   -1.9777   -0.0419 C   0  0  0  0  0  0  0  0  0  0  0  0
    3.6776   -0.6129   -0.0384 C   0  0  0  0  0  0  0  0  0  0  0  0
    4.8168    0.1247   -0.0577 O   0  0  0  0  0  0  0  0  0  0  0  0
    6.0404   -0.5113    0.3125 C   0  0  0  0  0  0  0  0  0  0  0  0
    6.1539   -1.8271   -0.4705 C   0  0  0  0  0  0  0  0  0  0  0  0
    5.0009   -2.7326   -0.0505 C   0  0  1  0  0  0  0  0  0  0  0  0
    5.2686   -3.3363    1.3082 C   0  0  0  0  0  0  0  0  0  0  0  0
    5.4326   -2.6780    2.4671 O   0  5  0  0  0  0  0  0  0  0  0  0
    5.3085   -4.6297    1.1257 N   0  0  0  0  0  0  0  0  0  0  0  0
    5.1068   -4.9734   -0.1534 C   0  0  0  0  0  0  0  0  0  0  0  0
    5.1003   -6.1218   -0.5561 O   0  0  0  0  0  0  0  0  0  0  0  0
    4.9111   -3.8970   -0.9420 N   0  0  0  0  0  0  0  0  0  0  0  0
   -0.1646   -3.0244   -0.0138 Cl  0  0  0  0  0  0  0  0  0  0  0  0
   -0.9632    1.8763    0.0259 H   0  0  0  0  0  0  0  0  0  0  0  0
    1.1264    3.1694    0.0080 H   0  0  0  0  0  0  0  0  0  0  0  0
    3.2891    2.0481   -0.0187 H   0  0  0  0  0  0  0  0  0  0  0  0
   -0.9238   -0.5600    0.0083 H   0  0  0  0  0  0  0  0  0  0  0  0
    2.5471   -3.7842   -0.0390 H   0  0  0  0  0  0  0  0  0  0  0  0
    6.8812    0.1370    0.0657 H   0  0  0  0  0  0  0  0  0  0  0  0
    6.0376   -0.7193    1.3825 H   0  0  0  0  0  0  0  0  0  0  0  0
    6.0924   -1.6251   -1.5399 H   0  0  0  0  0  0  0  0  0  0  0  0
    7.1034   -2.3108   -0.2412 H   0  0  0  0  0  0  0  0  0  0  0  0
    4.7451   -3.8925   -1.8977 H   0  0  0  0  0  0  0  0  0  0  0  0
  1  6  2  0  0  0  0
  1  2  1  0  0  0  0
  1 22  1  0  0  0  0
  2  3  2  0  0  0  0
  2 23  1  0  0  0  0
  3  4  1  0  0  0  0
  3 24  1  0  0  0  0
  4 10  2  0  0  0  0
  4  5  1  0  0  0  0
  5  6  1  0  0  0  0
  5  7  2  0  0  0  0
  6 25  1  0  0  0  0
  7  8  1  0  0  0  0
  7 21  1  0  0  0  0
  8  9  2  0  0  0  0
  8 26  1  0  0  0  0
  9 14  1  0  0  0  0
  9 10  1  0  0  0  0
 10 11  1  0  0  0  0
 11 12  1  0  0  0  0
 12 13  1  0  0  0  0
 12 27  1  0  0  0  0
 12 28  1  0  0  0  0
 13 14  1  0  0  0  0
 13 29  1  0  0  0  0
 13 30  1  0  0  0  0
 14 20  1  0  0  0  0
 14 15  1  0  0  0  0
 15 16  1  0  0  0  0
 15 17  2  0  0  0  0
 17 18  1  0  0  0  0
 18 19  2  0  0  0  0
 18 20  1  0  0  0  0
 20 31  1  0  0  0  0
M  CHG  1  16  -1
M  END
$$$$
CHEMBL19187
  -OEChem-07121202273D

 39 41  0     1  0  0  0  0  0999 V2000
    5.1592   -0.3077    8.0305 C   0  0  0  0  0  0  0  0  0  0  0  0
    6.4076   -0.5522    7.4898 C   0  0  0  0  0  0  0  0  0  0  0  0
    6.5765   -0.5634    6.1178 C   0  0  0  0  0  0  0  0  0  0  0  0
    5.4969   -0.3305    5.2866 C   0  0  0  0  0  0  0  0  0  0  0  0
    4.2482   -0.0868    5.8273 C   0  0  0  0  0  0  0  0  0  0  0  0
    4.0796   -0.0743    7.1993 C   0  0  0  0  0  0  0  0  0  0  0  0
    5.6812   -0.3417    3.7910 C   0  0  0  0  0  0  0  0  0  0  0  0
    5.4671   -1.6989    3.2827 N   0  0  0  0  0  0  0  0  0  0  0  0
    5.2018   -1.9457    1.6668 S   0  0  0  0  0  0  0  0  0  0  0  0
    5.0626   -3.3485    1.4877 O   0  0  0  0  0  0  0  0  0  0  0  0
    4.1937   -1.0240    1.2753 O   0  0  0  0  0  0  0  0  0  0  0  0
    6.6726   -1.4733    0.8194 C   0  0  0  0  0  0  0  0  0  0  0  0
    7.8453   -1.2796    1.5258 C   0  0  0  0  0  0  0  0  0  0  0  0
    8.9991   -0.9086    0.8617 C   0  0  0  0  0  0  0  0  0  0  0  0
    8.9807   -0.7315   -0.5105 C   0  0  0  0  0  0  0  0  0  0  0  0
    7.8073   -0.9260   -1.2168 C   0  0  0  0  0  0  0  0  0  0  0  0
    6.6550   -1.3021   -0.5521 C   0  0  0  0  0  0  0  0  0  0  0  0
    5.3779   -1.5194   -1.3221 C   0  0  2  0  0  0  0  0  0  0  0  0
    5.3015   -2.9430   -1.8372 C   0  0  0  0  0  0  0  0  0  0  0  0
    5.2823   -3.9602   -1.1780 O   0  0  0  0  0  0  0  0  0  0  0  0
    5.2586   -2.8425   -3.1805 N   0  0  0  0  0  0  0  0  0  0  0  0
    5.2968   -1.5667   -3.5814 C   0  0  0  0  0  0  0  0  0  0  0  0
    5.2697   -1.2237   -4.7471 O   0  0  0  0  0  0  0  0  0  0  0  0
    5.3683   -0.7058   -2.5501 N   0  0  0  0  0  0  0  0  0  0  0  0
   10.4295   -0.2650   -1.3453 Cl  0  0  0  0  0  0  0  0  0  0  0  0
    5.0263   -0.3034    9.1023 H   0  0  0  0  0  0  0  0  0  0  0  0
    7.2512   -0.7342    8.1392 H   0  0  0  0  0  0  0  0  0  0  0  0
    7.5521   -0.7538    5.6954 H   0  0  0  0  0  0  0  0  0  0  0  0
    3.4048    0.0955    5.1779 H   0  0  0  0  0  0  0  0  0  0  0  0
    3.1041    0.1165    7.6217 H   0  0  0  0  0  0  0  0  0  0  0  0
    4.9620    0.3361    3.3312 H   0  0  0  0  0  0  0  0  0  0  0  0
    6.6930   -0.0178    3.5472 H   0  0  0  0  0  0  0  0  0  0  0  0
    5.4807   -2.4530    3.8927 H   0  0  0  0  0  0  0  0  0  0  0  0
    7.8595   -1.4178    2.5968 H   0  0  0  0  0  0  0  0  0  0  0  0
    9.9148   -0.7566    1.4137 H   0  0  0  0  0  0  0  0  0  0  0  0
    7.7923   -0.7878   -2.2878 H   0  0  0  0  0  0  0  0  0  0  0  0
    4.5128   -1.2868   -0.7011 H   0  0  0  0  0  0  0  0  0  0  0  0
    5.2068   -3.6015   -3.7823 H   0  0  0  0  0  0  0  0  0  0  0  0
    5.4058    0.2619   -2.6045 H   0  0  0  0  0  0  0  0  0  0  0  0
  1  6  2  0  0  0  0
  1  2  1  0  0  0  0
  1 26  1  0  0  0  0
  2  3  2  0  0  0  0
  2 27  1  0  0  0  0
  3  4  1  0  0  0  0
  3 28  1  0  0  0  0
  4  5  2  0  0  0  0
  4  7  1  0  0  0  0
  5  6  1  0  0  0  0
  5 29  1  0  0  0  0
  6 30  1  0  0  0  0
  7  8  1  0  0  0  0
  7 31  1  0  0  0  0
  7 32  1  0  0  0  0
  8  9  1  0  0  0  0
  8 33  1  0  0  0  0
  9 10  2  0  0  0  0
  9 11  2  0  0  0  0
  9 12  1  0  0  0  0
 12 17  2  0  0  0  0
 12 13  1  0  0  0  0
 13 14  2  0  0  0  0
 13 34  1  0  0  0  0
 14 15  1  0  0  0  0
 14 35  1  0  0  0  0
 15 16  2  0  0  0  0
 15 25  1  0  0  0  0
 16 17  1  0  0  0  0
 16 36  1  0  0  0  0
 17 18  1  0  0  0  0
 18 24  1  0  0  0  0
 18 19  1  0  0  0  0
 18 37  1  0  0  0  0
 19 20  2  0  0  0  0
 19 21  1  0  0  0  0
 21 22  1  0  0  0  0
 21 38  1  0  0  0  0
 22 23  2  0  0  0  0
 22 24  1  0  0  0  0
 24 39  1  0  0  0  0
M  END
$$$$
CHEMBL19187
  -OEChem-07121202273D

 39 41  0     1  0  0  0  0  0999 V2000
    5.2864   -8.5638   -0.9642 C   0  0  0  0  0  0  0  0  0  0  0  0
    5.7708   -7.5799   -1.8057 C   0  0  0  0  0  0  0  0  0  0  0  0
    6.1793   -6.3657   -1.2864 C   0  0  0  0  0  0  0  0  0  0  0  0
    6.1032   -6.1353    0.0745 C   0  0  0  0  0  0  0  0  0  0  0  0
    5.6179   -7.1189    0.9160 C   0  0  0  0  0  0  0  0  0  0  0  0
    5.2107   -8.3336    0.3968 C   0  0  0  0  0  0  0  0  0  0  0  0
    6.5495   -4.8120    0.6409 C   0  0  0  0  0  0  0  0  0  0  0  0
    5.4154   -3.8851    0.6684 N   0  0  0  0  0  0  0  0  0  0  0  0
    5.4893   -2.5135    1.5934 S   0  0  0  0  0  0  0  0  0  0  0  0
    4.2828   -1.8002    1.3592 O   0  0  0  0  0  0  0  0  0  0  0  0
    5.8929   -2.9216    2.8933 O   0  0  0  0  0  0  0  0  0  0  0  0
    6.7946   -1.5206    0.9494 C   0  0  0  0  0  0  0  0  0  0  0  0
    7.9099   -1.2585    1.7233 C   0  0  0  0  0  0  0  0  0  0  0  0
    8.9338   -0.4794    1.2189 C   0  0  0  0  0  0  0  0  0  0  0  0
    8.8428    0.0381   -0.0612 C   0  0  0  0  0  0  0  0  0  0  0  0
    7.7268   -0.2248   -0.8352 C   0  0  0  0  0  0  0  0  0  0  0  0
    6.7056   -1.0086   -0.3314 C   0  0  0  0  0  0  0  0  0  0  0  0
    5.4924   -1.2997   -1.1766 C   0  0  1  0  0  0  0  0  0  0  0  0
    4.4950   -0.1617   -1.0878 C   0  0  0  0  0  0  0  0  0  0  0  0
    3.9248    0.2364   -0.0947 O   0  0  0  0  0  0  0  0  0  0  0  0
    4.3745    0.3159   -2.3422 N   0  0  0  0  0  0  0  0  0  0  0  0
    5.1491   -0.3552   -3.2023 C   0  0  0  0  0  0  0  0  0  0  0  0
    5.2107   -0.1080   -4.3907 O   0  0  0  0  0  0  0  0  0  0  0  0
    5.8518   -1.3344   -2.6047 N   0  0  0  0  0  0  0  0  0  0  0  0
   10.1283    1.0174   -0.6953 Cl  0  0  0  0  0  0  0  0  0  0  0  0
    4.9630   -9.5108   -1.3705 H   0  0  0  0  0  0  0  0  0  0  0  0
    5.8303   -7.7599   -2.8690 H   0  0  0  0  0  0  0  0  0  0  0  0
    6.5584   -5.5973   -1.9438 H   0  0  0  0  0  0  0  0  0  0  0  0
    5.5587   -6.9390    1.9792 H   0  0  0  0  0  0  0  0  0  0  0  0
    4.8320   -9.1022    1.0542 H   0  0  0  0  0  0  0  0  0  0  0  0
    6.9240   -4.9582    1.6540 H   0  0  0  0  0  0  0  0  0  0  0  0
    7.3417   -4.3984    0.0168 H   0  0  0  0  0  0  0  0  0  0  0  0
    4.6211   -4.0748    0.1449 H   0  0  0  0  0  0  0  0  0  0  0  0
    7.9808   -1.6625    2.7224 H   0  0  0  0  0  0  0  0  0  0  0  0
    9.8046   -0.2742    1.8238 H   0  0  0  0  0  0  0  0  0  0  0  0
    7.6553    0.1789   -1.8343 H   0  0  0  0  0  0  0  0  0  0  0  0
    5.0324   -2.2404   -0.8739 H   0  0  0  0  0  0  0  0  0  0  0  0
    3.7971    1.0546   -2.5909 H   0  0  0  0  0  0  0  0  0  0  0  0
    6.4741   -1.9442   -3.0311 H   0  0  0  0  0  0  0  0  0  0  0  0
  1  6  2  0  0  0  0
  1  2  1  0  0  0  0
  1 26  1  0  0  0  0
  2  3  2  0  0  0  0
  2 27  1  0  0  0  0
  3  4  1  0  0  0  0
  3 28  1  0  0  0  0
  4  5  2  0  0  0  0
  4  7  1  0  0  0  0
  5  6  1  0  0  0  0
  5 29  1  0  0  0  0
  6 30  1  0  0  0  0
  7  8  1  0  0  0  0
  7 31  1  0  0  0  0
  7 32  1  0  0  0  0
  8  9  1  0  0  0  0
  8 33  1  0  0  0  0
  9 10  2  0  0  0  0
  9 11  2  0  0  0  0
  9 12  1  0  0  0  0
 12 17  2  0  0  0  0
 12 13  1  0  0  0  0
 13 14  2  0  0  0  0
 13 34  1  0  0  0  0
 14 15  1  0  0  0  0
 14 35  1  0  0  0  0
 15 16  2  0  0  0  0
 15 25  1  0  0  0  0
 16 17  1  0  0  0  0
 16 36  1  0  0  0  0
 17 18  1  0  0  0  0
 18 24  1  0  0  0  0
 18 19  1  0  0  0  0
 18 37  1  0  0  0  0
 19 20  2  0  0  0  0
 19 21  1  0  0  0  0
 21 22  1  0  0  0  0
 21 38  1  0  0  0  0
 22 23  2  0  0  0  0
 22 24  1  0  0  0  0
 24 39  1  0  0  0  0
M  END
$$$$
CHEMBL140199
  -OEChem-07121202273D

 41 44  0     0  0  0  0  0  0999 V2000
   -0.0167    1.3791    0.0096 C   0  0  0  0  0  0  0  0  0  0  0  0
    1.1686    2.0921    0.0021 C   0  0  0  0  0  0  0  0  0  0  0  0
    2.3774    1.4263   -0.0129 C   0  0  0  0  0  0  0  0  0  0  0  0
    2.4023    0.0328   -0.0206 C   0  0  0  0  0  0  0  0  0  0  0  0
    1.2050   -0.6804   -0.0130 C   0  0  0  0  0  0  0  0  0  0  0  0
    0.0021   -0.0041    0.0020 C   0  0  0  0  0  0  0  0  0  0  0  0
    3.6985   -0.6885   -0.0373 C   0  0  0  0  0  0  0  0  0  0  0  0
    3.7619   -2.0562   -0.0505 C   0  0  0  0  0  0  0  0  0  0  0  0
    5.5300   -2.3038   -0.0671 S   0  0  0  0  0  0  0  0  0  0  0  0
    5.9941   -0.6864   -0.0558 C   0  0  0  0  0  0  0  0  0  0  0  0
    4.8560   -0.0429   -0.0458 N   0  0  0  0  0  0  0  0  0  0  0  0
    7.3888   -0.1157   -0.0611 C   0  0  0  0  0  0  0  0  0  0  0  0
    7.8514    0.0560    1.3183 N   0  0  0  0  0  0  0  0  0  0  0  0
    8.5099   -0.9558    1.9210 C   0  0  0  0  0  0  0  0  0  0  0  0
    8.7189   -1.9998    1.3293 O   0  0  0  0  0  0  0  0  0  0  0  0
    8.9701   -0.7745    3.3033 C   0  0  0  0  0  0  0  0  0  0  0  0
    9.6570   -1.7741    3.9909 C   0  0  0  0  0  0  0  0  0  0  0  0
   10.0644   -1.5457    5.2869 C   0  0  0  0  0  0  0  0  0  0  0  0
    9.7974   -0.3339    5.9110 C   0  0  0  0  0  0  0  0  0  0  0  0
    9.1255    0.6602    5.2563 C   0  0  0  0  0  0  0  0  0  0  0  0
    8.7007    0.4576    3.9418 C   0  0  0  0  0  0  0  0  0  0  0  0
    7.9786    1.4886    3.1961 C   0  0  0  0  0  0  0  0  0  0  0  0
    7.6043    1.2635    1.9720 N   0  0  0  0  0  0  0  0  0  0  0  0
    7.6742    2.8141    3.8454 C   0  0  0  0  0  0  0  0  0  0  0  0
    6.9288    3.6907    2.8723 C   0  0  0  0  0  0  0  0  0  0  0  0
    6.6688    3.2774    1.7551 O   0  0  0  0  0  0  0  0  0  0  0  0
    6.5857    4.8132    3.2022 O   0  5  0  0  0  0  0  0  0  0  0  0
   -0.9603    1.9042    0.0260 H   0  0  0  0  0  0  0  0  0  0  0  0
    1.1481    3.1719    0.0077 H   0  0  0  0  0  0  0  0  0  0  0  0
    3.3022    1.9840   -0.0191 H   0  0  0  0  0  0  0  0  0  0  0  0
    1.2185   -1.7603   -0.0193 H   0  0  0  0  0  0  0  0  0  0  0  0
   -0.9264   -0.5557    0.0079 H   0  0  0  0  0  0  0  0  0  0  0  0
    2.9637   -2.7837   -0.0508 H   0  0  0  0  0  0  0  0  0  0  0  0
    8.0581   -0.7969   -0.5866 H   0  0  0  0  0  0  0  0  0  0  0  0
    7.3842    0.8504   -0.5657 H   0  0  0  0  0  0  0  0  0  0  0  0
    9.8674   -2.7190    3.5120 H   0  0  0  0  0  0  0  0  0  0  0  0
   10.5968   -2.3171    5.8234 H   0  0  0  0  0  0  0  0  0  0  0  0
   10.1248   -0.1751    6.9279 H   0  0  0  0  0  0  0  0  0  0  0  0
    8.9244    1.5978    5.7532 H   0  0  0  0  0  0  0  0  0  0  0  0
    7.0611    2.6521    4.7319 H   0  0  0  0  0  0  0  0  0  0  0  0
    8.6064    3.3007    4.1323 H   0  0  0  0  0  0  0  0  0  0  0  0
  1  6  2  0  0  0  0
  1  2  1  0  0  0  0
  1 28  1  0  0  0  0
  2  3  2  0  0  0  0
  2 29  1  0  0  0  0
  3  4  1  0  0  0  0
  3 30  1  0  0  0  0
  4  5  2  0  0  0  0
  4  7  1  0  0  0  0
  5  6  1  0  0  0  0
  5 31  1  0  0  0  0
  6 32  1  0  0  0  0
  7 11  1  0  0  0  0
  7  8  2  0  0  0  0
  8  9  1  0  0  0  0
  8 33  1  0  0  0  0
  9 10  1  0  0  0  0
 10 11  2  0  0  0  0
 10 12  1  0  0  0  0
 12 13  1  0  0  0  0
 12 34  1  0  0  0  0
 12 35  1  0  0  0  0
 13 23  1  0  0  0  0
 13 14  1  0  0  0  0
 14 15  2  0  0  0  0
 14 16  1  0  0  0  0
 16 21  2  0  0  0  0
 16 17  1  0  0  0  0
 17 18  2  0  0  0  0
 17 36  1  0  0  0  0
 18 19  1  0  0  0  0
 18 37  1  0  0  0  0
 19 20  2  0  0  0  0
 19 38  1  0  0  0  0
 20 21  1  0  0  0  0
 20 39  1  0  0  0  0
 21 22  1  0  0  0  0
 22 23  2  0  0  0  0
 22 24  1  0  0  0  0
 24 25  1  0  0  0  0
 24 40  1  0  0  0  0
 24 41  1  0  0  0  0
 25 26  2  0  0  0  0
 25 27  1  0  0  0  0
M  CHG  1  27  -1
M  END
$$$$
CHEMBL261703
  -OEChem-07121202273D

 45 46  0     1  0  0  0  0  0999 V2000
    0.2314    2.5192   -0.8560 C   0  0  0  0  0  0  0  0  0  0  0  0
    1.2444    3.4525   -0.9787 C   0  0  0  0  0  0  0  0  0  0  0  0
    2.5626    3.0419   -1.0420 C   0  0  0  0  0  0  0  0  0  0  0  0
    2.8743    1.6959   -0.9833 C   0  0  0  0  0  0  0  0  0  0  0  0
    1.8643    0.7558   -0.8603 C   0  0  0  0  0  0  0  0  0  0  0  0
    0.5368    1.1694   -0.7961 C   0  0  0  0  0  0  0  0  0  0  0  0
   -0.4582    0.2503   -0.6749 O   0  0  0  0  0  0  0  0  0  0  0  0
    2.1689   -0.5674   -0.8029 O   0  0  0  0  0  0  0  0  0  0  0  0
    3.6429    4.0449   -1.1734 N   0  3  0  0  0  0  0  0  0  0  0  0
    4.7858    3.6849   -1.3347 O   0  0  0  0  0  0  0  0  0  0  0  0
    3.3826    5.2243   -1.1194 O   0  5  0  0  0  0  0  0  0  0  0  0
    0.9103    4.9205   -1.0442 C   0  0  0  0  0  0  0  0  0  0  0  0
    1.0506    5.4117   -2.4864 C   0  0  2  0  0  0  0  0  0  0  0  0
    2.0490    5.1764   -2.8549 H   0  0  0  0  0  0  0  0  0  0  0  0
    0.8367    6.9028   -2.5323 C   0  0  0  0  0  0  0  0  0  0  0  0
    1.6211    7.6487   -1.9712 O   0  0  0  0  0  0  0  0  0  0  0  0
   -0.1208    7.3631   -3.1305 O   0  5  0  0  0  0  0  0  0  0  0  0
    0.0754    4.7651   -3.3067 O   0  0  0  0  0  0  0  0  0  0  0  0
    0.3993    4.5653   -4.6013 C   0  0  0  0  0  0  0  0  0  0  0  0
    1.4810    4.9308   -5.0211 O   0  0  0  0  0  0  0  0  0  0  0  0
   -0.5211    3.9295   -5.4723 C   0  0  0  0  0  0  0  0  0  0  0  0
   -0.1969    3.7295   -6.7684 C   0  0  0  0  0  0  0  0  0  0  0  0
   -1.1509    3.0704   -7.6713 C   0  0  0  0  0  0  0  0  0  0  0  0
   -2.4968    2.9500   -7.3041 C   0  0  0  0  0  0  0  0  0  0  0  0
   -3.3881    2.3298   -8.1565 C   0  0  0  0  0  0  0  0  0  0  0  0
   -2.9477    1.8249   -9.3799 C   0  0  0  0  0  0  0  0  0  0  0  0
   -1.6134    1.9434   -9.7446 C   0  0  0  0  0  0  0  0  0  0  0  0
   -0.7181    2.5664   -8.9029 C   0  0  0  0  0  0  0  0  0  0  0  0
    0.7023    2.6969   -9.2985 N   0  3  0  0  0  0  0  0  0  0  0  0
    0.9902    2.9345  -10.4484 O   0  0  0  0  0  0  0  0  0  0  0  0
    1.5746    2.5660   -8.4716 O   0  5  0  0  0  0  0  0  0  0  0  0
   -3.8274    1.2148  -10.2172 O   0  0  0  0  0  0  0  0  0  0  0  0
   -4.6959    2.2107   -7.8030 O   0  0  0  0  0  0  0  0  0  0  0  0
   -0.7975    2.8430   -0.8022 H   0  0  0  0  0  0  0  0  0  0  0  0
    3.9051    1.3776   -1.0336 H   0  0  0  0  0  0  0  0  0  0  0  0
   -0.8048   -0.0678   -1.5198 H   0  0  0  0  0  0  0  0  0  0  0  0
    2.3161   -0.8986    0.0936 H   0  0  0  0  0  0  0  0  0  0  0  0
   -0.1141    5.0755   -0.7056 H   0  0  0  0  0  0  0  0  0  0  0  0
    1.5932    5.4775   -0.4026 H   0  0  0  0  0  0  0  0  0  0  0  0
   -1.4815    3.6050   -5.0996 H   0  0  0  0  0  0  0  0  0  0  0  0
    0.7635    4.0539   -7.1411 H   0  0  0  0  0  0  0  0  0  0  0  0
   -2.8365    3.3410   -6.3565 H   0  0  0  0  0  0  0  0  0  0  0  0
   -1.2774    1.5504  -10.6928 H   0  0  0  0  0  0  0  0  0  0  0  0
   -4.2559    1.8149  -10.8427 H   0  0  0  0  0  0  0  0  0  0  0  0
   -5.2484    2.9530   -8.0838 H   0  0  0  0  0  0  0  0  0  0  0  0
  1  6  2  0  0  0  0
  1  2  1  0  0  0  0
  1 34  1  0  0  0  0
  2  3  2  0  0  0  0
  2 12  1  0  0  0  0
  3  4  1  0  0  0  0
  3  9  1  0  0  0  0
  4  5  2  0  0  0  0
  4 35  1  0  0  0  0
  5  6  1  0  0  0  0
  5  8  1  0  0  0  0
  6  7  1  0  0  0  0
  7 36  1  0  0  0  0
  8 37  1  0  0  0  0
  9 10  2  0  0  0  0
  9 11  1  0  0  0  0
 12 13  1  0  0  0  0
 12 38  1  0  0  0  0
 12 39  1  0  0  0  0
 13 14  1  0  0  0  0
 13 15  1  0  0  0  0
 13 18  1  0  0  0  0
 15 16  2  0  0  0  0
 15 17  1  0  0  0  0
 18 19  1  0  0  0  0
 19 20  2  0  0  0  0
 19 21  1  0  0  0  0
 21 22  2  0  0  0  0
 21 40  1  0  0  0  0
 22 23  1  0  0  0  0
 22 41  1  0  0  0  0
 23 28  2  0  0  0  0
 23 24  1  0  0  0  0
 24 25  2  0  0  0  0
 24 42  1  0  0  0  0
 25 26  1  0  0  0  0
 25 33  1  0  0  0  0
 26 27  2  0  0  0  0
 26 32  1  0  0  0  0
 27 28  1  0  0  0  0
 27 43  1  0  0  0  0
 28 29  1  0  0  0  0
 29 30  2  0  0  0  0
 29 31  1  0  0  0  0
 32 44  1  0  0  0  0
 33 45  1  0  0  0  0
M  CHG  5   9   1  11  -1  17  -1  29   1  31  -1
M  END
$$$$
CHEMBL261703
  -OEChem-07121202273D

 44 45  0     1  0  0  0  0  0999 V2000
    0.2314    2.5192   -0.8560 C   0  0  0  0  0  0  0  0  0  0  0  0
    1.2444    3.4525   -0.9787 C   0  0  0  0  0  0  0  0  0  0  0  0
    2.5626    3.0419   -1.0420 C   0  0  0  0  0  0  0  0  0  0  0  0
    2.8743    1.6959   -0.9833 C   0  0  0  0  0  0  0  0  0  0  0  0
    1.8643    0.7558   -0.8603 C   0  0  0  0  0  0  0  0  0  0  0  0
    0.5368    1.1694   -0.7961 C   0  0  0  0  0  0  0  0  0  0  0  0
   -0.4582    0.2503   -0.6749 O   0  0  0  0  0  0  0  0  0  0  0  0
    2.1691   -0.5683   -0.8029 O   0  0  0  0  0  0  0  0  0  0  0  0
    3.6429    4.0449   -1.1734 N   0  3  0  0  0  0  0  0  0  0  0  0
    4.7858    3.6849   -1.3347 O   0  0  0  0  0  0  0  0  0  0  0  0
    3.3826    5.2243   -1.1194 O   0  5  0  0  0  0  0  0  0  0  0  0
    0.9103    4.9205   -1.0442 C   0  0  0  0  0  0  0  0  0  0  0  0
    1.0506    5.4117   -2.4864 C   0  0  2  0  0  0  0  0  0  0  0  0
    2.0490    5.1764   -2.8549 H   0  0  0  0  0  0  0  0  0  0  0  0
    0.8367    6.9028   -2.5323 C   0  0  0  0  0  0  0  0  0  0  0  0
    1.6211    7.6487   -1.9712 O   0  0  0  0  0  0  0  0  0  0  0  0
   -0.1208    7.3631   -3.1305 O   0  5  0  0  0  0  0  0  0  0  0  0
    0.0754    4.7651   -3.3067 O   0  0  0  0  0  0  0  0  0  0  0  0
    0.3993    4.5653   -4.6013 C   0  0  0  0  0  0  0  0  0  0  0  0
    1.4810    4.9308   -5.0211 O   0  0  0  0  0  0  0  0  0  0  0  0
   -0.5211    3.9295   -5.4723 C   0  0  0  0  0  0  0  0  0  0  0  0
   -0.1969    3.7295   -6.7684 C   0  0  0  0  0  0  0  0  0  0  0  0
   -1.1509    3.0704   -7.6713 C   0  0  0  0  0  0  0  0  0  0  0  0
   -2.4968    2.9500   -7.3041 C   0  0  0  0  0  0  0  0  0  0  0  0
   -3.3881    2.3298   -8.1565 C   0  0  0  0  0  0  0  0  0  0  0  0
   -2.9477    1.8249   -9.3799 C   0  0  0  0  0  0  0  0  0  0  0  0
   -1.6134    1.9434   -9.7446 C   0  0  0  0  0  0  0  0  0  0  0  0
   -0.7181    2.5664   -8.9029 C   0  0  0  0  0  0  0  0  0  0  0  0
    0.7023    2.6969   -9.2985 N   0  3  0  0  0  0  0  0  0  0  0  0
    0.9902    2.9345  -10.4484 O   0  0  0  0  0  0  0  0  0  0  0  0
    1.5746    2.5660   -8.4716 O   0  5  0  0  0  0  0  0  0  0  0  0
   -3.8268    1.2152  -10.2166 O   0  0  0  0  0  0  0  0  0  0  0  0
   -4.6959    2.2107   -7.8030 O   0  5  0  0  0  0  0  0  0  0  0  0
   -0.7975    2.8430   -0.8022 H   0  0  0  0  0  0  0  0  0  0  0  0
    3.9051    1.3776   -1.0336 H   0  0  0  0  0  0  0  0  0  0  0  0
   -0.8048   -0.0678   -1.5198 H   0  0  0  0  0  0  0  0  0  0  0  0
    2.3163   -0.8995    0.0936 H   0  0  0  0  0  0  0  0  0  0  0  0
   -0.1141    5.0755   -0.7056 H   0  0  0  0  0  0  0  0  0  0  0  0
    1.5932    5.4775   -0.4026 H   0  0  0  0  0  0  0  0  0  0  0  0
   -1.4815    3.6050   -5.0996 H   0  0  0  0  0  0  0  0  0  0  0  0
    0.7635    4.0539   -7.1411 H   0  0  0  0  0  0  0  0  0  0  0  0
   -2.8365    3.3410   -6.3565 H   0  0  0  0  0  0  0  0  0  0  0  0
   -1.2774    1.5504  -10.6928 H   0  0  0  0  0  0  0  0  0  0  0  0
   -4.2554    1.8153  -10.8421 H   0  0  0  0  0  0  0  0  0  0  0  0
  1  6  2  0  0  0  0
  1  2  1  0  0  0  0
  1 34  1  0  0  0  0
  2  3  2  0  0  0  0
  2 12  1  0  0  0  0
  3  4  1  0  0  0  0
  3  9  1  0  0  0  0
  4  5  2  0  0  0  0
  4 35  1  0  0  0  0
  5  6  1  0  0  0  0
  5  8  1  0  0  0  0
  6  7  1  0  0  0  0
  7 36  1  0  0  0  0
  8 37  1  0  0  0  0
  9 10  2  0  0  0  0
  9 11  1  0  0  0  0
 12 13  1  0  0  0  0
 12 38  1  0  0  0  0
 12 39  1  0  0  0  0
 13 14  1  0  0  0  0
 13 15  1  0  0  0  0
 13 18  1  0  0  0  0
 15 16  2  0  0  0  0
 15 17  1  0  0  0  0
 18 19  1  0  0  0  0
 19 20  2  0  0  0  0
 19 21  1  0  0  0  0
 21 22  2  0  0  0  0
 21 40  1  0  0  0  0
 22 23  1  0  0  0  0
 22 41  1  0  0  0  0
 23 28  2  0  0  0  0
 23 24  1  0  0  0  0
 24 25  2  0  0  0  0
 24 42  1  0  0  0  0
 25 26  1  0  0  0  0
 25 33  1  0  0  0  0
 26 27  2  0  0  0  0
 26 32  1  0  0  0  0
 27 28  1  0  0  0  0
 27 43  1  0  0  0  0
 28 29  1  0  0  0  0
 29 30  2  0  0  0  0
 29 31  1  0  0  0  0
 32 44  1  0  0  0  0
M  CHG  6   9   1  11  -1  17  -1  29   1  31  -1  33  -1
M  END
$$$$
CHEMBL10413
  -OEChem-07121202273D

 36 38  0     0  0  0  0  0  0999 V2000
   -0.0167    1.3834    0.0096 C   0  0  0  0  0  0  0  0  0  0  0  0
    1.1629    2.0974    0.0022 C   0  0  0  0  0  0  0  0  0  0  0  0
    2.3776    1.4158   -0.0130 C   0  0  0  0  0  0  0  0  0  0  0  0
    2.3960    0.0095   -0.0207 C   0  0  0  0  0  0  0  0  0  0  0  0
    1.2013   -0.6919   -0.0130 C   0  0  0  0  0  0  0  0  0  0  0  0
    0.0021   -0.0041    0.0020 C   0  0  0  0  0  0  0  0  0  0  0  0
   -1.4941   -0.8844    0.0121 Cl  0  0  0  0  0  0  0  0  0  0  0  0
    3.6210   -0.6419   -0.0354 N   0  0  0  0  0  0  0  0  0  0  0  0
    4.7687    0.0578   -0.0417 C   0  0  0  0  0  0  0  0  0  0  0  0
    5.8211   -0.5507   -0.0541 O   0  0  0  0  0  0  0  0  0  0  0  0
    4.8026    1.3995   -0.0352 N   0  0  0  0  0  0  0  0  0  0  0  0
    3.6664    2.1297   -0.0210 C   0  0  0  0  0  0  0  0  0  0  0  0
    3.7062    3.3451   -0.0149 O   0  0  0  0  0  0  0  0  0  0  0  0
    6.0971    2.0854   -0.0434 C   0  0  0  0  0  0  0  0  0  0  0  0
    6.5283    2.3277   -1.4669 C   0  0  0  0  0  0  0  0  0  0  0  0
    7.4473    1.4851   -2.0636 C   0  0  0  0  0  0  0  0  0  0  0  0
    7.8429    1.7064   -3.3693 C   0  0  0  0  0  0  0  0  0  0  0  0
    7.3198    2.7718   -4.0804 C   0  0  0  0  0  0  0  0  0  0  0  0
    6.4007    3.6159   -3.4850 C   0  0  0  0  0  0  0  0  0  0  0  0
    5.9996    3.3908   -2.1789 C   0  0  0  0  0  0  0  0  0  0  0  0
    5.0975    4.2116   -1.5979 F   0  0  0  0  0  0  0  0  0  0  0  0
    7.8623    3.0738   -5.8665 Br  0  0  0  0  0  0  0  0  0  0  0  0
    3.6640   -2.1063   -0.0436 C   0  0  0  0  0  0  0  0  0  0  0  0
    3.6658   -2.6008   -1.4671 C   0  0  0  0  0  0  0  0  0  0  0  0
    3.6341   -1.8039   -2.3893 O   0  0  0  0  0  0  0  0  0  0  0  0
    3.6989   -3.7977   -1.6966 O   0  5  0  0  0  0  0  0  0  0  0  0
   -0.9610    1.9073    0.0260 H   0  0  0  0  0  0  0  0  0  0  0  0
    1.1451    3.1772    0.0078 H   0  0  0  0  0  0  0  0  0  0  0  0
    1.2067   -1.7718   -0.0185 H   0  0  0  0  0  0  0  0  0  0  0  0
    6.0062    3.0393    0.4761 H   0  0  0  0  0  0  0  0  0  0  0  0
    6.8394    1.4664    0.4607 H   0  0  0  0  0  0  0  0  0  0  0  0
    7.8568    0.6537   -1.5092 H   0  0  0  0  0  0  0  0  0  0  0  0
    8.5610    1.0476   -3.8346 H   0  0  0  0  0  0  0  0  0  0  0  0
    5.9928    4.4480   -4.0396 H   0  0  0  0  0  0  0  0  0  0  0  0
    4.5689   -2.4460    0.4602 H   0  0  0  0  0  0  0  0  0  0  0  0
    2.7898   -2.4983    0.4762 H   0  0  0  0  0  0  0  0  0  0  0  0
  1  6  2  0  0  0  0
  1  2  1  0  0  0  0
  1 27  1  0  0  0  0
  2  3  2  0  0  0  0
  2 28  1  0  0  0  0
  3 12  1  0  0  0  0
  3  4  1  0  0  0  0
  4  5  2  0  0  0  0
  4  8  1  0  0  0  0
  5  6  1  0  0  0  0
  5 29  1  0  0  0  0
  6  7  1  0  0  0  0
  8  9  1  0  0  0  0
  8 23  1  0  0  0  0
  9 10  2  0  0  0  0
  9 11  1  0  0  0  0
 11 12  1  0  0  0  0
 11 14  1  0  0  0  0
 12 13  2  0  0  0  0
 14 15  1  0  0  0  0
 14 30  1  0  0  0  0
 14 31  1  0  0  0  0
 15 20  2  0  0  0  0
 15 16  1  0  0  0  0
 16 17  2  0  0  0  0
 16 32  1  0  0  0  0
 17 18  1  0  0  0  0
 17 33  1  0  0  0  0
 18 19  2  0  0  0  0
 18 22  1  0  0  0  0
 19 20  1  0  0  0  0
 19 34  1  0  0  0  0
 20 21  1  0  0  0  0
 23 24  1  0  0  0  0
 23 35  1  0  0  0  0
 23 36  1  0  0  0  0
 24 25  2  0  0  0  0
 24 26  1  0  0  0  0
M  CHG  1  26  -1
M  END
$$$$
CHEMBL77692
  -OEChem-07121202273D

 37 39  0     1  0  0  0  0  0999 V2000
   -0.0187    1.5258    0.0104 C   0  0  0  0  0  0  0  0  0  0  0  0
    0.0021   -0.0041    0.0020 C   0  0  2  0  0  0  0  0  0  0  0  0
    0.7309   -0.5033    1.2229 C   0  0  0  0  0  0  0  0  0  0  0  0
    0.0801   -1.3140    2.1275 C   0  0  0  0  0  0  0  0  0  0  0  0
    0.7185   -1.8045    3.2677 C   0  0  0  0  0  0  0  0  0  0  0  0
    2.0463   -1.4641    3.4705 C   0  0  0  0  0  0  0  0  0  0  0  0
    2.7077   -0.6221    2.5498 C   0  0  0  0  0  0  0  0  0  0  0  0
    2.0504   -0.1514    1.4284 C   0  0  0  0  0  0  0  0  0  0  0  0
    4.0012   -0.2755    2.7655 O   0  0  0  0  0  0  0  0  0  0  0  0
    2.8513   -1.9539    4.5984 C   0  0  0  0  0  0  0  0  0  0  0  0
    3.5831   -1.1804    5.1853 O   0  0  0  0  0  0  0  0  0  0  0  0
    2.7923   -3.3614    5.0356 C   0  0  0  0  0  0  0  0  0  0  0  0
    3.9138   -4.1884    4.9822 C   0  0  0  0  0  0  0  0  0  0  0  0
    3.8009   -5.4961    5.4152 C   0  0  0  0  0  0  0  0  0  0  0  0
    2.5895   -5.9650    5.8928 C   0  0  0  0  0  0  0  0  0  0  0  0
    1.4804   -5.1382    5.9395 C   0  0  0  0  0  0  0  0  0  0  0  0
    1.5853   -3.8285    5.5020 C   0  0  0  0  0  0  0  0  0  0  0  0
    0.3874   -2.9301    5.5222 C   0  0  0  0  0  0  0  0  0  0  0  0
   -0.1631   -2.6488    4.1511 C   0  0  0  0  0  0  0  0  0  0  0  0
    0.7074   -0.4901   -1.2379 C   0  0  0  0  0  0  0  0  0  0  0  0
    1.7092   -1.1780   -1.1392 O   0  0  0  0  0  0  0  0  0  0  0  0
    0.2764   -0.1953   -2.3396 O   0  5  0  0  0  0  0  0  0  0  0  0
    1.0039    1.9031    0.0027 H   0  0  0  0  0  0  0  0  0  0  0  0
   -0.5459    1.8868   -0.8726 H   0  0  0  0  0  0  0  0  0  0  0  0
   -0.5289    1.8773    0.9072 H   0  0  0  0  0  0  0  0  0  0  0  0
   -1.0205   -0.3814    0.0098 H   0  0  0  0  0  0  0  0  0  0  0  0
   -0.9522   -1.5767    1.9495 H   0  0  0  0  0  0  0  0  0  0  0  0
    2.5617    0.4873    0.7234 H   0  0  0  0  0  0  0  0  0  0  0  0
    4.6421   -0.8830    2.3716 H   0  0  0  0  0  0  0  0  0  0  0  0
    4.8550   -3.8133    4.6083 H   0  0  0  0  0  0  0  0  0  0  0  0
    4.6581   -6.1523    5.3804 H   0  0  0  0  0  0  0  0  0  0  0  0
    2.5088   -6.9868    6.2330 H   0  0  0  0  0  0  0  0  0  0  0  0
    0.5390   -5.5123    6.3141 H   0  0  0  0  0  0  0  0  0  0  0  0
   -0.3920   -3.3988    6.1231 H   0  0  0  0  0  0  0  0  0  0  0  0
    0.6658   -1.9853    5.9889 H   0  0  0  0  0  0  0  0  0  0  0  0
   -1.1216   -2.1423    4.2639 H   0  0  0  0  0  0  0  0  0  0  0  0
   -0.3399   -3.6006    3.6501 H   0  0  0  0  0  0  0  0  0  0  0  0
  1  2  1  0  0  0  0
  1 23  1  0  0  0  0
  1 24  1  0  0  0  0
  1 25  1  0  0  0  0
  2  3  1  0  0  0  0
  2 20  1  0  0  0  0
  2 26  1  0  0  0  0
  3  8  2  0  0  0  0
  3  4  1  0  0  0  0
  4  5  2  0  0  0  0
  4 27  1  0  0  0  0
  5 19  1  0  0  0  0
  5  6  1  0  0  0  0
  6  7  2  0  0  0  0
  6 10  1  0  0  0  0
  7  8  1  0  0  0  0
  7  9  1  0  0  0  0
  8 28  1  0  0  0  0
  9 29  1  0  0  0  0
 10 11  2  0  0  0  0
 10 12  1  0  0  0  0
 12 17  2  0  0  0  0
 12 13  1  0  0  0  0
 13 14  2  0  0  0  0
 13 30  1  0  0  0  0
 14 15  1  0  0  0  0
 14 31  1  0  0  0  0
 15 16  2  0  0  0  0
 15 32  1  0  0  0  0
 16 17  1  0  0  0  0
 16 33  1  0  0  0  0
 17 18  1  0  0  0  0
 18 19  1  0  0  0  0
 18 34  1  0  0  0  0
 18 35  1  0  0  0  0
 19 36  1  0  0  0  0
 19 37  1  0  0  0  0
 20 21  2  0  0  0  0
 20 22  1  0  0  0  0
M  CHG  1  22  -1
M  END
$$$$
CHEMBL77692
  -OEChem-07121202273D

 37 39  0     1  0  0  0  0  0999 V2000
   -0.0187    1.5258    0.0104 C   0  0  0  0  0  0  0  0  0  0  0  0
    0.0021   -0.0041    0.0020 C   0  0  1  0  0  0  0  0  0  0  0  0
    0.7074   -0.4901   -1.2379 C   0  0  0  0  0  0  0  0  0  0  0  0
    0.0359   -1.2817   -2.1442 C   0  0  0  0  0  0  0  0  0  0  0  0
    0.6480   -1.7482   -3.3086 C   0  0  0  0  0  0  0  0  0  0  0  0
    1.9637   -1.3841   -3.5460 C   0  0  0  0  0  0  0  0  0  0  0  0
    2.6547   -0.5842   -2.6097 C   0  0  0  0  0  0  0  0  0  0  0  0
    2.0228   -0.1359   -1.4647 C   0  0  0  0  0  0  0  0  0  0  0  0
    3.9491   -0.2492   -2.8378 O   0  0  0  0  0  0  0  0  0  0  0  0
    2.7092   -1.7606   -4.7554 C   0  0  0  0  0  0  0  0  0  0  0  0
    3.8610   -2.1354   -4.6499 O   0  0  0  0  0  0  0  0  0  0  0  0
    2.0933   -1.6950   -6.0940 C   0  0  0  0  0  0  0  0  0  0  0  0
    2.5897   -0.8472   -7.0835 C   0  0  0  0  0  0  0  0  0  0  0  0
    1.9776   -0.8359   -8.3227 C   0  0  0  0  0  0  0  0  0  0  0  0
    0.8911   -1.6583   -8.5655 C   0  0  0  0  0  0  0  0  0  0  0  0
    0.4027   -2.4946   -7.5766 C   0  0  0  0  0  0  0  0  0  0  0  0
    1.0080   -2.5065   -6.3311 C   0  0  0  0  0  0  0  0  0  0  0  0
    0.4744   -3.3869   -5.2435 C   0  0  0  0  0  0  0  0  0  0  0  0
   -0.2356   -2.6227   -4.1601 C   0  0  0  0  0  0  0  0  0  0  0  0
    0.7309   -0.5033    1.2229 C   0  0  0  0  0  0  0  0  0  0  0  0
    0.3147   -1.4781    1.8253 O   0  0  0  0  0  0  0  0  0  0  0  0
    1.7369    0.0677    1.6083 O   0  5  0  0  0  0  0  0  0  0  0  0
    1.0039    1.9031    0.0027 H   0  0  0  0  0  0  0  0  0  0  0  0
   -0.5459    1.8868   -0.8726 H   0  0  0  0  0  0  0  0  0  0  0  0
   -0.5289    1.8773    0.9072 H   0  0  0  0  0  0  0  0  0  0  0  0
   -1.0205   -0.3814    0.0098 H   0  0  0  0  0  0  0  0  0  0  0  0
   -0.9920   -1.5488   -1.9480 H   0  0  0  0  0  0  0  0  0  0  0  0
    2.5529    0.4809   -0.7541 H   0  0  0  0  0  0  0  0  0  0  0  0
    4.0610    0.5751   -3.3307 H   0  0  0  0  0  0  0  0  0  0  0  0
    3.4384   -0.2095   -6.8848 H   0  0  0  0  0  0  0  0  0  0  0  0
    2.3470   -0.1852   -9.1016 H   0  0  0  0  0  0  0  0  0  0  0  0
    0.4195   -1.6475   -9.5370 H   0  0  0  0  0  0  0  0  0  0  0  0
   -0.4453   -3.1333   -7.7748 H   0  0  0  0  0  0  0  0  0  0  0  0
   -0.2219   -4.1020   -5.6816 H   0  0  0  0  0  0  0  0  0  0  0  0
    1.3040   -3.9365   -4.7989 H   0  0  0  0  0  0  0  0  0  0  0  0
   -0.7393   -3.3380   -3.5099 H   0  0  0  0  0  0  0  0  0  0  0  0
   -0.9953   -1.9940   -4.6246 H   0  0  0  0  0  0  0  0  0  0  0  0
  1  2  1  0  0  0  0
  1 23  1  0  0  0  0
  1 24  1  0  0  0  0
  1 25  1  0  0  0  0
  2  3  1  0  0  0  0
  2 20  1  0  0  0  0
  2 26  1  0  0  0  0
  3  8  2  0  0  0  0
  3  4  1  0  0  0  0
  4  5  2  0  0  0  0
  4 27  1  0  0  0  0
  5 19  1  0  0  0  0
  5  6  1  0  0  0  0
  6  7  2  0  0  0  0
  6 10  1  0  0  0  0
  7  8  1  0  0  0  0
  7  9  1  0  0  0  0
  8 28  1  0  0  0  0
  9 29  1  0  0  0  0
 10 11  2  0  0  0  0
 10 12  1  0  0  0  0
 12 17  2  0  0  0  0
 12 13  1  0  0  0  0
 13 14  2  0  0  0  0
 13 30  1  0  0  0  0
 14 15  1  0  0  0  0
 14 31  1  0  0  0  0
 15 16  2  0  0  0  0
 15 32  1  0  0  0  0
 16 17  1  0  0  0  0
 16 33  1  0  0  0  0
 17 18  1  0  0  0  0
 18 19  1  0  0  0  0
 18 34  1  0  0  0  0
 18 35  1  0  0  0  0
 19 36  1  0  0  0  0
 19 37  1  0  0  0  0
 20 21  2  0  0  0  0
 20 22  1  0  0  0  0
M  CHG  1  22  -1
M  END
$$$$
CHEMBL132245
  -OEChem-07121202273D

 39 42  0     1  0  0  0  0  0999 V2000
   -0.0167    1.3781    0.0096 C   0  0  0  0  0  0  0  0  0  0  0  0
    1.1709    2.0855    0.0021 C   0  0  0  0  0  0  0  0  0  0  0  0
    2.3773    1.4107   -0.0130 C   0  0  0  0  0  0  0  0  0  0  0  0
    2.3960    0.0285   -0.0201 C   0  0  0  0  0  0  0  0  0  0  0  0
    1.2084   -0.6789   -0.0117 C   0  0  0  0  0  0  0  0  0  0  0  0
    0.0021   -0.0041    0.0020 C   0  0  0  0  0  0  0  0  0  0  0  0
    3.7112   -0.7071   -0.0376 C   0  0  0  0  0  0  0  0  0  0  0  0
    4.1714   -0.9633    1.3989 C   0  0  0  0  0  0  0  0  0  0  0  0
    5.4498   -1.6784    1.3820 N   0  0  0  0  0  0  0  0  0  0  0  0
    5.4470   -3.0202    1.3698 C   0  0  0  0  0  0  0  0  0  0  0  0
    4.3793   -3.6033    1.3755 O   0  0  0  0  0  0  0  0  0  0  0  0
    6.6781   -3.8077    1.3495 C   0  0  0  0  0  0  0  0  0  0  0  0
    6.9214   -5.1641    1.3318 C   0  0  0  0  0  0  0  0  0  0  0  0
    8.3096   -5.3313    1.3164 C   0  0  0  0  0  0  0  0  0  0  0  0
    8.8768   -4.1003    1.3251 C   0  0  0  0  0  0  0  0  0  0  0  0
    7.9041   -3.1694    1.3456 N   0  0  0  0  0  0  0  0  0  0  0  0
    7.9087   -1.7081    1.3631 C   0  0  2  0  0  0  0  0  0  0  0  0
    6.5982   -0.9699    1.3735 C   0  0  0  0  0  0  0  0  0  0  0  0
    6.5741    0.2423    1.3782 O   0  0  0  0  0  0  0  0  0  0  0  0
    8.7175   -1.2176    0.1523 C   0  0  0  0  0  0  0  0  0  0  0  0
    9.9065   -0.5321    0.7951 C   0  0  0  0  0  0  0  0  0  0  0  0
   10.9081    0.0640    0.1306 O   0  5  0  0  0  0  0  0  0  0  0  0
    9.8068   -0.6095    2.0899 N   0  0  0  0  0  0  0  0  0  0  0  0
    8.7266   -1.2475    2.5429 C   0  0  0  0  0  0  0  0  0  0  0  0
    8.4484   -1.4274    3.7109 O   0  0  0  0  0  0  0  0  0  0  0  0
   -0.9591    1.9053    0.0259 H   0  0  0  0  0  0  0  0  0  0  0  0
    1.1563    3.1654    0.0076 H   0  0  0  0  0  0  0  0  0  0  0  0
    3.3051    1.9634   -0.0196 H   0  0  0  0  0  0  0  0  0  0  0  0
    1.2231   -1.7588   -0.0176 H   0  0  0  0  0  0  0  0  0  0  0  0
   -0.9258   -0.5567    0.0082 H   0  0  0  0  0  0  0  0  0  0  0  0
    3.5884   -1.6586   -0.5549 H   0  0  0  0  0  0  0  0  0  0  0  0
    4.4573   -0.1052   -0.5563 H   0  0  0  0  0  0  0  0  0  0  0  0
    4.2941   -0.0118    1.9163 H   0  0  0  0  0  0  0  0  0  0  0  0
    3.4252   -1.5652    1.9176 H   0  0  0  0  0  0  0  0  0  0  0  0
    6.1800   -5.9494    1.3302 H   0  0  0  0  0  0  0  0  0  0  0  0
    8.8363   -6.2741    1.3004 H   0  0  0  0  0  0  0  0  0  0  0  0
    9.9378   -3.8987    1.3172 H   0  0  0  0  0  0  0  0  0  0  0  0
    9.0419   -2.0581   -0.4611 H   0  0  0  0  0  0  0  0  0  0  0  0
    8.1365   -0.5091   -0.4383 H   0  0  0  0  0  0  0  0  0  0  0  0
  1  6  2  0  0  0  0
  1  2  1  0  0  0  0
  1 26  1  0  0  0  0
  2  3  2  0  0  0  0
  2 27  1  0  0  0  0
  3  4  1  0  0  0  0
  3 28  1  0  0  0  0
  4  5  2  0  0  0  0
  4  7  1  0  0  0  0
  5  6  1  0  0  0  0
  5 29  1  0  0  0  0
  6 30  1  0  0  0  0
  7  8  1  0  0  0  0
  7 31  1  0  0  0  0
  7 32  1  0  0  0  0
  8  9  1  0  0  0  0
  8 33  1  0  0  0  0
  8 34  1  0  0  0  0
  9 18  1  0  0  0  0
  9 10  1  0  0  0  0
 10 11  2  0  0  0  0
 10 12  1  0  0  0  0
 12 16  1  0  0  0  0
 12 13  2  0  0  0  0
 13 14  1  0  0  0  0
 13 35  1  0  0  0  0
 14 15  2  0  0  0  0
 14 36  1  0  0  0  0
 15 16  1  0  0  0  0
 15 37  1  0  0  0  0
 16 17  1  0  0  0  0
 17 24  1  0  0  0  0
 17 18  1  0  0  0  0
 17 20  1  0  0  0  0
 18 19  2  0  0  0  0
 20 21  1  0  0  0  0
 20 38  1  0  0  0  0
 20 39  1  0  0  0  0
 21 22  1  0  0  0  0
 21 23  2  0  0  0  0
 23 24  1  0  0  0  0
 24 25  2  0  0  0  0
M  CHG  1  22  -1
M  END
$$$$
CHEMBL132245
  -OEChem-07121202273D

 39 42  0     1  0  0  0  0  0999 V2000
   -0.0167    1.3781    0.0096 C   0  0  0  0  0  0  0  0  0  0  0  0
    1.1709    2.0855    0.0021 C   0  0  0  0  0  0  0  0  0  0  0  0
    2.3773    1.4107   -0.0130 C   0  0  0  0  0  0  0  0  0  0  0  0
    2.3960    0.0285   -0.0201 C   0  0  0  0  0  0  0  0  0  0  0  0
    1.2084   -0.6789   -0.0117 C   0  0  0  0  0  0  0  0  0  0  0  0
    0.0021   -0.0041    0.0020 C   0  0  0  0  0  0  0  0  0  0  0  0
    3.7112   -0.7071   -0.0376 C   0  0  0  0  0  0  0  0  0  0  0  0
    4.1714   -0.9633    1.3989 C   0  0  0  0  0  0  0  0  0  0  0  0
    5.4498   -1.6784    1.3820 N   0  0  0  0  0  0  0  0  0  0  0  0
    5.4470   -3.0202    1.3698 C   0  0  0  0  0  0  0  0  0  0  0  0
    4.3793   -3.6033    1.3702 O   0  0  0  0  0  0  0  0  0  0  0  0
    6.6781   -3.8077    1.3556 C   0  0  0  0  0  0  0  0  0  0  0  0
    6.9215   -5.1642    1.3447 C   0  0  0  0  0  0  0  0  0  0  0  0
    8.3097   -5.3315    1.3343 C   0  0  0  0  0  0  0  0  0  0  0  0
    8.8769   -4.1005    1.3387 C   0  0  0  0  0  0  0  0  0  0  0  0
    7.9041   -3.1694    1.3511 N   0  0  0  0  0  0  0  0  0  0  0  0
    7.9087   -1.7081    1.3592 C   0  0  1  0  0  0  0  0  0  0  0  0
    6.5982   -0.9699    1.3735 C   0  0  0  0  0  0  0  0  0  0  0  0
    6.5741    0.2423    1.3813 O   0  0  0  0  0  0  0  0  0  0  0  0
    8.7369   -1.2389    2.5653 C   0  0  0  0  0  0  0  0  0  0  0  0
    9.9156   -0.5420    1.9156 C   0  0  0  0  0  0  0  0  0  0  0  0
   10.9285    0.0412    2.5743 O   0  5  0  0  0  0  0  0  0  0  0  0
    9.7949   -0.5965    0.6214 N   0  0  0  0  0  0  0  0  0  0  0  0
    8.7075   -1.2266    0.1747 C   0  0  0  0  0  0  0  0  0  0  0  0
    8.4106   -1.3863   -0.9917 O   0  0  0  0  0  0  0  0  0  0  0  0
   -0.9591    1.9053    0.0259 H   0  0  0  0  0  0  0  0  0  0  0  0
    1.1563    3.1654    0.0076 H   0  0  0  0  0  0  0  0  0  0  0  0
    3.3051    1.9634   -0.0196 H   0  0  0  0  0  0  0  0  0  0  0  0
    1.2231   -1.7588   -0.0176 H   0  0  0  0  0  0  0  0  0  0  0  0
   -0.9258   -0.5567    0.0082 H   0  0  0  0  0  0  0  0  0  0  0  0
    3.5884   -1.6586   -0.5549 H   0  0  0  0  0  0  0  0  0  0  0  0
    4.4573   -0.1052   -0.5563 H   0  0  0  0  0  0  0  0  0  0  0  0
    4.2941   -0.0118    1.9163 H   0  0  0  0  0  0  0  0  0  0  0  0
    3.4252   -1.5652    1.9176 H   0  0  0  0  0  0  0  0  0  0  0  0
    6.1801   -5.9495    1.3442 H   0  0  0  0  0  0  0  0  0  0  0  0
    8.8365   -6.2743    1.3246 H   0  0  0  0  0  0  0  0  0  0  0  0
    9.9379   -3.8988    1.3335 H   0  0  0  0  0  0  0  0  0  0  0  0
    8.1657   -0.5410    3.1776 H   0  0  0  0  0  0  0  0  0  0  0  0
    9.0711   -2.0901    3.1585 H   0  0  0  0  0  0  0  0  0  0  0  0
  1  6  2  0  0  0  0
  1  2  1  0  0  0  0
  1 26  1  0  0  0  0
  2  3  2  0  0  0  0
  2 27  1  0  0  0  0
  3  4  1  0  0  0  0
  3 28  1  0  0  0  0
  4  5  2  0  0  0  0
  4  7  1  0  0  0  0
  5  6  1  0  0  0  0
  5 29  1  0  0  0  0
  6 30  1  0  0  0  0
  7  8  1  0  0  0  0
  7 31  1  0  0  0  0
  7 32  1  0  0  0  0
  8  9  1  0  0  0  0
  8 33  1  0  0  0  0
  8 34  1  0  0  0  0
  9 18  1  0  0  0  0
  9 10  1  0  0  0  0
 10 11  2  0  0  0  0
 10 12  1  0  0  0  0
 12 16  1  0  0  0  0
 12 13  2  0  0  0  0
 13 14  1  0  0  0  0
 13 35  1  0  0  0  0
 14 15  2  0  0  0  0
 14 36  1  0  0  0  0
 15 16  1  0  0  0  0
 15 37  1  0  0  0  0
 16 17  1  0  0  0  0
 17 24  1  0  0  0  0
 17 18  1  0  0  0  0
 17 20  1  0  0  0  0
 18 19  2  0  0  0  0
 20 21  1  0  0  0  0
 20 38  1  0  0  0  0
 20 39  1  0  0  0  0
 21 22  1  0  0  0  0
 21 23  2  0  0  0  0
 23 24  1  0  0  0  0
 24 25  2  0  0  0  0
M  CHG  1  22  -1
M  END
$$$$
CHEMBL241577
  -OEChem-07121202273D

 37 38  0     0  0  0  0  0  0999 V2000
   -0.0167    1.3779    0.0096 C   0  0  0  0  0  0  0  0  0  0  0  0
    1.1711    2.0854    0.0021 C   0  0  0  0  0  0  0  0  0  0  0  0
    2.3773    1.4107   -0.0130 C   0  0  0  0  0  0  0  0  0  0  0  0
    2.3961    0.0283   -0.0201 C   0  0  0  0  0  0  0  0  0  0  0  0
    1.2086   -0.6790   -0.0117 C   0  0  0  0  0  0  0  0  0  0  0  0
    0.0021   -0.0041    0.0020 C   0  0  0  0  0  0  0  0  0  0  0  0
    1.2287   -2.1590   -0.0202 N   0  3  0  0  0  0  0  0  0  0  0  0
    2.2838   -2.7492   -0.0346 O   0  0  0  0  0  0  0  0  0  0  0  0
    0.1900   -2.7777   -0.0128 O   0  5  0  0  0  0  0  0  0  0  0  0
    3.6720    2.1819   -0.0222 C   0  0  0  0  0  0  0  0  0  0  0  0
    4.1052    2.4254    1.3559 N   0  0  0  0  0  0  0  0  0  0  0  0
    5.2460    3.1023    1.5941 C   0  0  0  0  0  0  0  0  0  0  0  0
    5.9157    3.5110    0.6650 O   0  0  0  0  0  0  0  0  0  0  0  0
    5.6821    3.3474    2.9814 C   0  0  0  0  0  0  0  0  0  0  0  0
    4.9183    2.8744    4.0518 C   0  0  0  0  0  0  0  0  0  0  0  0
    5.3308    3.1058    5.3453 C   0  0  0  0  0  0  0  0  0  0  0  0
    6.5018    3.8074    5.5911 C   0  0  0  0  0  0  0  0  0  0  0  0
    7.2662    4.2805    4.5414 C   0  0  0  0  0  0  0  0  0  0  0  0
    6.8680    4.0510    3.2334 C   0  0  0  0  0  0  0  0  0  0  0  0
    7.6201    4.5099    2.2019 O   0  0  0  0  0  0  0  0  0  0  0  0
    8.8155    5.2183    2.5354 C   0  0  0  0  0  0  0  0  0  0  0  0
    9.5142    5.6479    1.2712 C   0  0  0  0  0  0  0  0  0  0  0  0
    9.0331    5.3729    0.1852 O   0  0  0  0  0  0  0  0  0  0  0  0
   10.5606    6.2705    1.3344 O   0  5  0  0  0  0  0  0  0  0  0  0
    7.0097    4.0932    7.2264 Cl  0  0  0  0  0  0  0  0  0  0  0  0
   -0.9591    1.9051    0.0259 H   0  0  0  0  0  0  0  0  0  0  0  0
    1.1565    3.1653    0.0076 H   0  0  0  0  0  0  0  0  0  0  0  0
    3.3385   -0.4989   -0.0326 H   0  0  0  0  0  0  0  0  0  0  0  0
   -0.9258   -0.5567    0.0082 H   0  0  0  0  0  0  0  0  0  0  0  0
    4.4344    1.6056   -0.5463 H   0  0  0  0  0  0  0  0  0  0  0  0
    3.5237    3.1349   -0.5302 H   0  0  0  0  0  0  0  0  0  0  0  0
    3.5710    2.0994    2.0970 H   0  0  0  0  0  0  0  0  0  0  0  0
    4.0055    2.3283    3.8649 H   0  0  0  0  0  0  0  0  0  0  0  0
    4.7397    2.7398    6.1717 H   0  0  0  0  0  0  0  0  0  0  0  0
    8.1767    4.8263    4.7403 H   0  0  0  0  0  0  0  0  0  0  0  0
    8.5633    6.0978    3.1280 H   0  0  0  0  0  0  0  0  0  0  0  0
    9.4741    4.5685    3.1117 H   0  0  0  0  0  0  0  0  0  0  0  0
  1  6  2  0  0  0  0
  1  2  1  0  0  0  0
  1 26  1  0  0  0  0
  2  3  2  0  0  0  0
  2 27  1  0  0  0  0
  3  4  1  0  0  0  0
  3 10  1  0  0  0  0
  4  5  2  0  0  0  0
  4 28  1  0  0  0  0
  5  6  1  0  0  0  0
  5  7  1  0  0  0  0
  6 29  1  0  0  0  0
  7  8  2  0  0  0  0
  7  9  1  0  0  0  0
 10 11  1  0  0  0  0
 10 30  1  0  0  0  0
 10 31  1  0  0  0  0
 11 12  1  0  0  0  0
 11 32  1  0  0  0  0
 12 13  2  0  0  0  0
 12 14  1  0  0  0  0
 14 19  2  0  0  0  0
 14 15  1  0  0  0  0
 15 16  2  0  0  0  0
 15 33  1  0  0  0  0
 16 17  1  0  0  0  0
 16 34  1  0  0  0  0
 17 18  2  0  0  0  0
 17 25  1  0  0  0  0
 18 19  1  0  0  0  0
 18 35  1  0  0  0  0
 19 20  1  0  0  0  0
 20 21  1  0  0  0  0
 21 22  1  0  0  0  0
 21 36  1  0  0  0  0
 21 37  1  0  0  0  0
 22 23  2  0  0  0  0
 22 24  1  0  0  0  0
M  CHG  3   7   1   9  -1  24  -1
M  END
$$$$
CHEMBL434076
  -OEChem-07121202273D

 30 31  0     0  0  0  0  0  0999 V2000
   -0.0167    1.3779    0.0096 C   0  0  0  0  0  0  0  0  0  0  0  0
    1.1711    2.0854    0.0021 C   0  0  0  0  0  0  0  0  0  0  0  0
    2.3773    1.4107   -0.0130 C   0  0  0  0  0  0  0  0  0  0  0  0
    2.3961    0.0283   -0.0201 C   0  0  0  0  0  0  0  0  0  0  0  0
    1.2086   -0.6790   -0.0117 C   0  0  0  0  0  0  0  0  0  0  0  0
    0.0021   -0.0041    0.0020 C   0  0  0  0  0  0  0  0  0  0  0  0
    1.2287   -2.1590   -0.0202 N   0  3  0  0  0  0  0  0  0  0  0  0
    2.2838   -2.7492   -0.0346 O   0  0  0  0  0  0  0  0  0  0  0  0
    0.1900   -2.7777   -0.0128 O   0  5  0  0  0  0  0  0  0  0  0  0
    3.6720    2.1819   -0.0222 C   0  0  0  0  0  0  0  0  0  0  0  0
    4.1052    2.4254    1.3559 N   0  0  0  0  0  0  0  0  0  0  0  0
    3.7706    3.4969    2.1069 C   0  0  0  0  0  0  0  0  0  0  0  0
    3.0668    4.4306    1.7828 O   0  0  0  0  0  0  0  0  0  0  0  0
    4.4519    3.2888    3.4253 C   0  0  0  0  0  0  0  0  0  0  0  0
    4.4163    4.0184    4.3942 O   0  0  0  0  0  0  0  0  0  0  0  0
    5.1137    2.1174    3.3075 N   0  0  0  0  0  0  0  0  0  0  0  0
    4.8951    1.6168    2.0808 C   0  0  0  0  0  0  0  0  0  0  0  0
    5.5439    0.1381    1.5121 S   0  0  0  0  0  0  0  0  0  0  0  0
    5.9325    1.4926    4.3493 C   0  0  0  0  0  0  0  0  0  0  0  0
    5.0710    0.5841    5.1880 C   0  0  0  0  0  0  0  0  0  0  0  0
    3.8831    0.4691    4.9385 O   0  0  0  0  0  0  0  0  0  0  0  0
    5.5618   -0.0359    6.1160 O   0  5  0  0  0  0  0  0  0  0  0  0
   -0.9591    1.9051    0.0259 H   0  0  0  0  0  0  0  0  0  0  0  0
    1.1565    3.1653    0.0076 H   0  0  0  0  0  0  0  0  0  0  0  0
    3.3385   -0.4989   -0.0326 H   0  0  0  0  0  0  0  0  0  0  0  0
   -0.9258   -0.5567    0.0082 H   0  0  0  0  0  0  0  0  0  0  0  0
    4.4344    1.6056   -0.5463 H   0  0  0  0  0  0  0  0  0  0  0  0
    3.5237    3.1349   -0.5302 H   0  0  0  0  0  0  0  0  0  0  0  0
    6.7294    0.9114    3.8854 H   0  0  0  0  0  0  0  0  0  0  0  0
    6.3680    2.2662    4.9818 H   0  0  0  0  0  0  0  0  0  0  0  0
  1  6  2  0  0  0  0
  1  2  1  0  0  0  0
  1 23  1  0  0  0  0
  2  3  2  0  0  0  0
  2 24  1  0  0  0  0
  3  4  1  0  0  0  0
  3 10  1  0  0  0  0
  4  5  2  0  0  0  0
  4 25  1  0  0  0  0
  5  6  1  0  0  0  0
  5  7  1  0  0  0  0
  6 26  1  0  0  0  0
  7  8  2  0  0  0  0
  7  9  1  0  0  0  0
 10 11  1  0  0  0  0
 10 27  1  0  0  0  0
 10 28  1  0  0  0  0
 11 17  1  0  0  0  0
 11 12  1  0  0  0  0
 12 13  2  0  0  0  0
 12 14  1  0  0  0  0
 14 15  2  0  0  0  0
 14 16  1  0  0  0  0
 16 17  1  0  0  0  0
 16 19  1  0  0  0  0
 17 18  2  0  0  0  0
 19 20  1  0  0  0  0
 19 29  1  0  0  0  0
 19 30  1  0  0  0  0
 20 21  2  0  0  0  0
 20 22  1  0  0  0  0
M  CHG  3   7   1   9  -1  22  -1
M  END
$$$$
CHEMBL399598
  -OEChem-07121202273D

 37 39  0     0  0  0  0  0  0999 V2000
   -0.0167    1.3838    0.0097 C   0  0  0  0  0  0  0  0  0  0  0  0
    1.1630    2.0942    0.0022 C   0  0  0  0  0  0  0  0  0  0  0  0
    2.3849    1.4164   -0.0131 C   0  0  0  0  0  0  0  0  0  0  0  0
    2.4009    0.0140   -0.0207 C   0  0  0  0  0  0  0  0  0  0  0  0
    1.2058   -0.6867   -0.0130 C   0  0  0  0  0  0  0  0  0  0  0  0
    0.0021   -0.0041    0.0020 C   0  0  0  0  0  0  0  0  0  0  0  0
   -1.1606   -0.6920    0.0098 F   0  0  0  0  0  0  0  0  0  0  0  0
    3.5817   -0.6536   -0.0360 O   0  0  0  0  0  0  0  0  0  0  0  0
    3.5198   -2.0812   -0.0430 C   0  0  0  0  0  0  0  0  0  0  0  0
    4.9174   -2.6446   -0.0598 C   0  0  0  0  0  0  0  0  0  0  0  0
    5.8776   -1.8932   -0.0653 O   0  0  0  0  0  0  0  0  0  0  0  0
    5.0881   -3.8518   -0.0679 O   0  5  0  0  0  0  0  0  0  0  0  0
    3.6509    2.1717   -0.0216 C   0  0  0  0  0  0  0  0  0  0  0  0
    4.7126    1.5788   -0.0349 O   0  0  0  0  0  0  0  0  0  0  0  0
    3.6317    3.5193   -0.0147 N   0  0  0  0  0  0  0  0  0  0  0  0
    4.8898    4.2699   -0.0231 C   0  0  0  0  0  0  0  0  0  0  0  0
    4.5933    5.7474   -0.0128 C   0  0  0  0  0  0  0  0  0  0  0  0
    4.4520    6.5254    1.0203 N   0  0  0  0  0  0  0  0  0  0  0  0
    4.1863    7.8425    0.8971 C   0  0  0  0  0  0  0  0  0  0  0  0
    4.0029    8.8259    1.8948 C   0  0  0  0  0  0  0  0  0  0  0  0
    3.7364   10.1289    1.5476 C   0  0  0  0  0  0  0  0  0  0  0  0
    3.6395   10.5180    0.2167 C   0  0  0  0  0  0  0  0  0  0  0  0
    3.8143    9.5773   -0.7828 C   0  0  0  0  0  0  0  0  0  0  0  0
    4.0814    8.2708   -0.4442 C   0  0  0  0  0  0  0  0  0  0  0  0
    4.3774    6.7657   -1.3354 S   0  0  0  0  0  0  0  0  0  0  0  0
    3.7239    9.9391   -2.0813 F   0  0  0  0  0  0  0  0  0  0  0  0
    3.5645   11.0506    2.5203 F   0  0  0  0  0  0  0  0  0  0  0  0
    4.0896    8.4832    3.1987 F   0  0  0  0  0  0  0  0  0  0  0  0
   -0.9604    1.9088    0.0260 H   0  0  0  0  0  0  0  0  0  0  0  0
    1.1439    3.1740    0.0078 H   0  0  0  0  0  0  0  0  0  0  0  0
    1.2135   -1.7666   -0.0192 H   0  0  0  0  0  0  0  0  0  0  0  0
    2.9995   -2.4267    0.8504 H   0  0  0  0  0  0  0  0  0  0  0  0
    2.9819   -2.4172   -0.9295 H   0  0  0  0  0  0  0  0  0  0  0  0
    2.7849    3.9922   -0.0041 H   0  0  0  0  0  0  0  0  0  0  0  0
    5.4737    4.0103    0.8599 H   0  0  0  0  0  0  0  0  0  0  0  0
    5.4564    4.0192   -0.9199 H   0  0  0  0  0  0  0  0  0  0  0  0
    3.4290   11.5469   -0.0353 H   0  0  0  0  0  0  0  0  0  0  0  0
  1  6  2  0  0  0  0
  1  2  1  0  0  0  0
  1 29  1  0  0  0  0
  2  3  2  0  0  0  0
  2 30  1  0  0  0  0
  3  4  1  0  0  0  0
  3 13  1  0  0  0  0
  4  5  2  0  0  0  0
  4  8  1  0  0  0  0
  5  6  1  0  0  0  0
  5 31  1  0  0  0  0
  6  7  1  0  0  0  0
  8  9  1  0  0  0  0
  9 10  1  0  0  0  0
  9 32  1  0  0  0  0
  9 33  1  0  0  0  0
 10 11  2  0  0  0  0
 10 12  1  0  0  0  0
 13 14  2  0  0  0  0
 13 15  1  0  0  0  0
 15 16  1  0  0  0  0
 15 34  1  0  0  0  0
 16 17  1  0  0  0  0
 16 35  1  0  0  0  0
 16 36  1  0  0  0  0
 17 25  1  0  0  0  0
 17 18  2  0  0  0  0
 18 19  1  0  0  0  0
 19 24  2  0  0  0  0
 19 20  1  0  0  0  0
 20 21  2  0  0  0  0
 20 28  1  0  0  0  0
 21 22  1  0  0  0  0
 21 27  1  0  0  0  0
 22 23  2  0  0  0  0
 22 37  1  0  0  0  0
 23 24  1  0  0  0  0
 23 26  1  0  0  0  0
 24 25  1  0  0  0  0
M  CHG  1  12  -1
M  END
$$$$
CHEMBL395347
  -OEChem-07121202273D

 35 36  0     0  0  0  0  0  0999 V2000
   -0.0167    1.3836    0.0096 C   0  0  0  0  0  0  0  0  0  0  0  0
    1.1632    2.0941    0.0022 C   0  0  0  0  0  0  0  0  0  0  0  0
    2.3853    1.4160   -0.0131 C   0  0  0  0  0  0  0  0  0  0  0  0
    2.4009    0.0132   -0.0207 C   0  0  0  0  0  0  0  0  0  0  0  0
    1.2059   -0.6870   -0.0131 C   0  0  0  0  0  0  0  0  0  0  0  0
    0.0021   -0.0041    0.0020 C   0  0  0  0  0  0  0  0  0  0  0  0
   -1.1607   -0.6919    0.0094 F   0  0  0  0  0  0  0  0  0  0  0  0
    3.5818   -0.6549   -0.0360 O   0  0  0  0  0  0  0  0  0  0  0  0
    3.5194   -2.0825   -0.0430 C   0  0  0  0  0  0  0  0  0  0  0  0
    4.9169   -2.6463   -0.0598 C   0  0  0  0  0  0  0  0  0  0  0  0
    5.8773   -1.8952   -0.0653 O   0  0  0  0  0  0  0  0  0  0  0  0
    5.0872   -3.8535   -0.0679 O   0  5  0  0  0  0  0  0  0  0  0  0
    3.6500    2.1702   -0.0216 C   0  0  0  0  0  0  0  0  0  0  0  0
    5.1445    1.3352   -0.0403 S   0  0  0  0  0  0  0  0  0  0  0  0
    3.6311    3.5178   -0.0147 N   0  0  0  0  0  0  0  0  0  0  0  0
    4.8893    4.2682   -0.0231 C   0  0  0  0  0  0  0  0  0  0  0  0
    4.5931    5.7457   -0.0129 C   0  0  0  0  0  0  0  0  0  0  0  0
    4.6440    6.4691   -1.1896 C   0  0  0  0  0  0  0  0  0  0  0  0
    4.3721    7.8241   -1.1811 C   0  0  0  0  0  0  0  0  0  0  0  0
    4.0490    8.4582    0.0054 C   0  0  0  0  0  0  0  0  0  0  0  0
    3.9980    7.7364    1.1836 C   0  0  0  0  0  0  0  0  0  0  0  0
    4.2644    6.3777    1.1743 C   0  0  0  0  0  0  0  0  0  0  0  0
    4.2095    5.6702    2.3239 F   0  0  0  0  0  0  0  0  0  0  0  0
    3.6777   10.3124    0.0158 Br  0  0  0  0  0  0  0  0  0  0  0  0
   -0.9605    1.9085    0.0260 H   0  0  0  0  0  0  0  0  0  0  0  0
    1.1441    3.1739    0.0078 H   0  0  0  0  0  0  0  0  0  0  0  0
    1.2134   -1.7670   -0.0189 H   0  0  0  0  0  0  0  0  0  0  0  0
    2.9991   -2.4279    0.8504 H   0  0  0  0  0  0  0  0  0  0  0  0
    2.9815   -2.4184   -0.9295 H   0  0  0  0  0  0  0  0  0  0  0  0
    2.7843    3.9909   -0.0041 H   0  0  0  0  0  0  0  0  0  0  0  0
    5.4731    4.0085    0.8599 H   0  0  0  0  0  0  0  0  0  0  0  0
    5.4558    4.0174   -0.9199 H   0  0  0  0  0  0  0  0  0  0  0  0
    4.8968    5.9752   -2.1162 H   0  0  0  0  0  0  0  0  0  0  0  0
    4.4121    8.3884   -2.1011 H   0  0  0  0  0  0  0  0  0  0  0  0
    3.7465    8.2313    2.1100 H   0  0  0  0  0  0  0  0  0  0  0  0
  1  6  2  0  0  0  0
  1  2  1  0  0  0  0
  1 25  1  0  0  0  0
  2  3  2  0  0  0  0
  2 26  1  0  0  0  0
  3  4  1  0  0  0  0
  3 13  1  0  0  0  0
  4  5  2  0  0  0  0
  4  8  1  0  0  0  0
  5  6  1  0  0  0  0
  5 27  1  0  0  0  0
  6  7  1  0  0  0  0
  8  9  1  0  0  0  0
  9 10  1  0  0  0  0
  9 28  1  0  0  0  0
  9 29  1  0  0  0  0
 10 11  2  0  0  0  0
 10 12  1  0  0  0  0
 13 14  2  0  0  0  0
 13 15  1  0  0  0  0
 15 16  1  0  0  0  0
 15 30  1  0  0  0  0
 16 17  1  0  0  0  0
 16 31  1  0  0  0  0
 16 32  1  0  0  0  0
 17 22  2  0  0  0  0
 17 18  1  0  0  0  0
 18 19  2  0  0  0  0
 18 33  1  0  0  0  0
 19 20  1  0  0  0  0
 19 34  1  0  0  0  0
 20 21  2  0  0  0  0
 20 24  1  0  0  0  0
 21 22  1  0  0  0  0
 21 35  1  0  0  0  0
 22 23  1  0  0  0  0
M  CHG  1  12  -1
M  END
$$$$
CHEMBL75245
  -OEChem-07121202273D

 31 33  0     0  0  0  0  0  0999 V2000
   -0.0166    1.3693    0.0096 C   0  0  0  0  0  0  0  0  0  0  0  0
    1.1721    2.0791    0.0020 C   0  0  0  0  0  0  0  0  0  0  0  0
    2.3589    1.3891   -0.0372 C   0  0  0  0  0  0  0  0  0  0  0  0
    2.3812   -0.0187   -0.0548 C   0  0  0  0  0  0  0  0  0  0  0  0
    1.2000   -0.7333   -0.0060 C   0  0  0  0  0  0  0  0  0  0  0  0
    0.0021   -0.0041    0.0020 C   0  0  0  0  0  0  0  0  0  0  0  0
    0.9711   -2.2187    0.1017 C   0  0  0  0  0  0  0  0  0  0  0  0
    2.4298   -3.1742    0.5394 S   0  0  0  0  0  0  0  0  0  0  0  0
    3.5439   -2.9724   -0.8068 C   0  0  0  0  0  0  0  0  0  0  0  0
    3.9064   -4.0613   -1.5956 C   0  0  0  0  0  0  0  0  0  0  0  0
    4.7612   -3.8624   -2.6623 C   0  0  0  0  0  0  0  0  0  0  0  0
    5.2484   -2.5967   -2.9535 C   0  0  0  0  0  0  0  0  0  0  0  0
    4.9018   -1.5154   -2.1698 C   0  0  0  0  0  0  0  0  0  0  0  0
    4.0533   -1.7182   -1.0763 C   0  0  0  0  0  0  0  0  0  0  0  0
    3.7064   -0.6347   -0.1598 C   0  0  0  0  0  0  0  0  0  0  0  0
    4.5828   -0.2126    0.5703 O   0  0  0  0  0  0  0  0  0  0  0  0
    5.1684   -5.0332   -3.5194 C   0  0  0  0  0  0  0  0  0  0  0  0
    4.1895   -5.1892   -4.6546 C   0  0  0  0  0  0  0  0  0  0  0  0
    3.2484   -4.4210   -4.7580 O   0  0  0  0  0  0  0  0  0  0  0  0
    4.3386   -6.0837   -5.4695 O   0  5  0  0  0  0  0  0  0  0  0  0
   -0.9593    1.8959    0.0259 H   0  0  0  0  0  0  0  0  0  0  0  0
    1.1661    3.1588    0.0263 H   0  0  0  0  0  0  0  0  0  0  0  0
    3.2905    1.9353   -0.0553 H   0  0  0  0  0  0  0  0  0  0  0  0
   -0.9358   -0.5395    0.0019 H   0  0  0  0  0  0  0  0  0  0  0  0
    0.2042   -2.3955    0.8558 H   0  0  0  0  0  0  0  0  0  0  0  0
    0.5969   -2.5801   -0.8561 H   0  0  0  0  0  0  0  0  0  0  0  0
    3.5249   -5.0475   -1.3762 H   0  0  0  0  0  0  0  0  0  0  0  0
    5.9043   -2.4567   -3.7999 H   0  0  0  0  0  0  0  0  0  0  0  0
    5.2791   -0.5292   -2.3967 H   0  0  0  0  0  0  0  0  0  0  0  0
    6.1664   -4.8592   -3.9217 H   0  0  0  0  0  0  0  0  0  0  0  0
    5.1729   -5.9410   -2.9161 H   0  0  0  0  0  0  0  0  0  0  0  0
  1  6  2  0  0  0  0
  1  2  1  0  0  0  0
  1 21  1  0  0  0  0
  2  3  2  0  0  0  0
  2 22  1  0  0  0  0
  3  4  1  0  0  0  0
  3 23  1  0  0  0  0
  4 15  1  0  0  0  0
  4  5  2  0  0  0  0
  5  6  1  0  0  0  0
  5  7  1  0  0  0  0
  6 24  1  0  0  0  0
  7  8  1  0  0  0  0
  7 25  1  0  0  0  0
  7 26  1  0  0  0  0
  8  9  1  0  0  0  0
  9 14  2  0  0  0  0
  9 10  1  0  0  0  0
 10 11  2  0  0  0  0
 10 27  1  0  0  0  0
 11 12  1  0  0  0  0
 11 17  1  0  0  0  0
 12 13  2  0  0  0  0
 12 28  1  0  0  0  0
 13 14  1  0  0  0  0
 13 29  1  0  0  0  0
 14 15  1  0  0  0  0
 15 16  2  0  0  0  0
 17 18  1  0  0  0  0
 17 30  1  0  0  0  0
 17 31  1  0  0  0  0
 18 19  2  0  0  0  0
 18 20  1  0  0  0  0
M  CHG  1  20  -1
M  END
$$$$
CHEMBL61955
  -OEChem-07121202273D

 42 45  0     1  0  0  0  0  0999 V2000
   -0.0178    1.4608    0.0101 C   0  0  0  0  0  0  0  0  0  0  0  0
    0.0021   -0.0041    0.0020 N   0  0  0  0  0  0  0  0  0  0  0  0
    0.0060   -0.6866   -1.1617 C   0  0  0  0  0  0  0  0  0  0  0  0
   -0.0058   -0.0607   -2.2040 O   0  0  0  0  0  0  0  0  0  0  0  0
    0.0229   -2.0248   -1.2170 N   0  0  0  0  0  0  0  0  0  0  0  0
    0.0341   -2.8406   -0.0852 C   0  0  0  0  0  0  0  0  0  0  0  0
    0.0483   -4.2218   -0.2038 C   0  0  0  0  0  0  0  0  0  0  0  0
    0.0579   -5.0125    0.9368 C   0  0  0  0  0  0  0  0  0  0  0  0
    0.0541   -4.4231    2.1954 C   0  0  0  0  0  0  0  0  0  0  0  0
    0.0414   -3.0450    2.3131 C   0  0  0  0  0  0  0  0  0  0  0  0
    0.0314   -2.2606    1.1826 C   0  0  0  0  0  0  0  0  0  0  0  0
    0.0242   -0.7586    1.2571 C   0  0  2  0  0  0  0  0  0  0  0  0
   -1.1582   -0.3316    2.0890 C   0  0  0  0  0  0  0  0  0  0  0  0
   -2.4575   -0.5071    1.7987 O   0  5  0  0  0  0  0  0  0  0  0  0
   -0.6590    0.2448    3.1514 N   0  0  0  0  0  0  0  0  0  0  0  0
    0.6809    0.2612    3.1429 C   0  0  0  0  0  0  0  0  0  0  0  0
    1.3609    0.7462    4.0280 O   0  0  0  0  0  0  0  0  0  0  0  0
    1.1872   -0.3234    2.0368 N   0  0  0  0  0  0  0  0  0  0  0  0
    0.0632   -5.2698    3.4096 N   0  3  0  0  0  0  0  0  0  0  0  0
    0.0599   -4.7568    4.5043 O   0  0  0  0  0  0  0  0  0  0  0  0
    0.0739   -6.4743    3.3065 O   0  5  0  0  0  0  0  0  0  0  0  0
    0.0710   -6.4042    0.8194 N   0  0  0  0  0  0  0  0  0  0  0  0
   -1.1835   -7.1705    0.7519 C   0  0  0  0  0  0  0  0  0  0  0  0
   -1.1099   -8.1130   -0.4548 C   0  0  0  0  0  0  0  0  0  0  0  0
    0.0970   -8.8759   -0.3833 O   0  0  0  0  0  0  0  0  0  0  0  0
    1.2902   -8.0911   -0.4479 C   0  0  0  0  0  0  0  0  0  0  0  0
    1.3396   -7.1470    0.7535 C   0  0  0  0  0  0  0  0  0  0  0  0
    1.0048    1.8381    0.0023 H   0  0  0  0  0  0  0  0  0  0  0  0
   -0.5450    1.8219   -0.8730 H   0  0  0  0  0  0  0  0  0  0  0  0
   -0.5280    1.8123    0.9069 H   0  0  0  0  0  0  0  0  0  0  0  0
    0.0272   -2.4488   -2.0894 H   0  0  0  0  0  0  0  0  0  0  0  0
    0.0515   -4.6813   -1.1812 H   0  0  0  0  0  0  0  0  0  0  0  0
    0.0389   -2.5854    3.2904 H   0  0  0  0  0  0  0  0  0  0  0  0
    2.1231   -0.4330    1.8064 H   0  0  0  0  0  0  0  0  0  0  0  0
   -1.3078   -7.7524    1.6652 H   0  0  0  0  0  0  0  0  0  0  0  0
   -2.0248   -6.4877    0.6337 H   0  0  0  0  0  0  0  0  0  0  0  0
   -1.9672   -8.7861   -0.4439 H   0  0  0  0  0  0  0  0  0  0  0  0
   -1.1170   -7.5281   -1.3746 H   0  0  0  0  0  0  0  0  0  0  0  0
    2.1596   -8.7483   -0.4320 H   0  0  0  0  0  0  0  0  0  0  0  0
    1.2919   -7.5061   -1.3676 H   0  0  0  0  0  0  0  0  0  0  0  0
    2.1682   -6.4486    0.6363 H   0  0  0  0  0  0  0  0  0  0  0  0
    1.4736   -7.7265    1.6669 H   0  0  0  0  0  0  0  0  0  0  0  0
  1  2  1  0  0  0  0
  1 28  1  0  0  0  0
  1 29  1  0  0  0  0
  1 30  1  0  0  0  0
  2 12  1  0  0  0  0
  2  3  1  0  0  0  0
  3  4  2  0  0  0  0
  3  5  1  0  0  0  0
  5  6  1  0  0  0  0
  5 31  1  0  0  0  0
  6 11  2  0  0  0  0
  6  7  1  0  0  0  0
  7  8  2  0  0  0  0
  7 32  1  0  0  0  0
  8  9  1  0  0  0  0
  8 22  1  0  0  0  0
  9 10  2  0  0  0  0
  9 19  1  0  0  0  0
 10 11  1  0  0  0  0
 10 33  1  0  0  0  0
 11 12  1  0  0  0  0
 12 18  1  0  0  0  0
 12 13  1  0  0  0  0
 13 14  1  0  0  0  0
 13 15  2  0  0  0  0
 15 16  1  0  0  0  0
 16 17  2  0  0  0  0
 16 18  1  0  0  0  0
 18 34  1  0  0  0  0
 19 20  2  0  0  0  0
 19 21  1  0  0  0  0
 22 27  1  0  0  0  0
 22 23  1  0  0  0  0
 23 24  1  0  0  0  0
 23 35  1  0  0  0  0
 23 36  1  0  0  0  0
 24 25  1  0  0  0  0
 24 37  1  0  0  0  0
 24 38  1  0  0  0  0
 25 26  1  0  0  0  0
 26 27  1  0  0  0  0
 26 39  1  0  0  0  0
 26 40  1  0  0  0  0
 27 41  1  0  0  0  0
 27 42  1  0  0  0  0
M  CHG  3  14  -1  19   1  21  -1
M  END
$$$$
CHEMBL61955
  -OEChem-07121202273D

 43 46  0     1  0  0  0  0  0999 V2000
   -0.0178    1.4608    0.0101 C   0  0  0  0  0  0  0  0  0  0  0  0
    0.0021   -0.0041    0.0020 N   0  0  0  0  0  0  0  0  0  0  0  0
    0.0060   -0.6863   -1.1617 C   0  0  0  0  0  0  0  0  0  0  0  0
   -0.0062   -0.0602   -2.2039 O   0  0  0  0  0  0  0  0  0  0  0  0
    0.0233   -2.0245   -1.2174 N   0  0  0  0  0  0  0  0  0  0  0  0
    0.0347   -2.8404   -0.0857 C   0  0  0  0  0  0  0  0  0  0  0  0
    0.0485   -4.2216   -0.2046 C   0  0  0  0  0  0  0  0  0  0  0  0
    0.0578   -5.0126    0.9358 C   0  0  0  0  0  0  0  0  0  0  0  0
    0.0535   -4.4234    2.1946 C   0  0  0  0  0  0  0  0  0  0  0  0
    0.0409   -3.0453    2.3125 C   0  0  0  0  0  0  0  0  0  0  0  0
    0.0317   -2.2607    1.1822 C   0  0  0  0  0  0  0  0  0  0  0  0
    0.0242   -0.7585    1.2574 C   0  0  2  0  0  0  0  0  0  0  0  0
   -1.1620   -0.3339    2.0860 C   0  0  0  0  0  0  0  0  0  0  0  0
   -2.3353   -0.4924    1.8250 O   0  0  0  0  0  0  0  0  0  0  0  0
   -0.6403    0.2599    3.1804 N   0  0  0  0  0  0  0  0  0  0  0  0
    0.6983    0.2637    3.1476 C   0  0  0  0  0  0  0  0  0  0  0  0
    1.3948    0.7418    4.0213 O   0  0  0  0  0  0  0  0  0  0  0  0
    1.1863   -0.3233    2.0367 N   0  0  0  0  0  0  0  0  0  0  0  0
    0.0620   -5.2703    3.4086 N   0  3  0  0  0  0  0  0  0  0  0  0
    0.0583   -4.7575    4.5034 O   0  0  0  0  0  0  0  0  0  0  0  0
    0.0727   -6.4748    3.3053 O   0  5  0  0  0  0  0  0  0  0  0  0
    0.0710   -6.4043    0.8182 N   0  0  0  0  0  0  0  0  0  0  0  0
   -1.1834   -7.1706    0.7501 C   0  0  0  0  0  0  0  0  0  0  0  0
   -1.1094   -8.1129   -0.4568 C   0  0  0  0  0  0  0  0  0  0  0  0
    0.0975   -8.8757   -0.3851 O   0  0  0  0  0  0  0  0  0  0  0  0
    1.2907   -8.0908   -0.4491 C   0  0  0  0  0  0  0  0  0  0  0  0
    1.3396   -7.1469    0.7526 C   0  0  0  0  0  0  0  0  0  0  0  0
    1.0048    1.8381    0.0023 H   0  0  0  0  0  0  0  0  0  0  0  0
   -0.5450    1.8219   -0.8730 H   0  0  0  0  0  0  0  0  0  0  0  0
   -0.5280    1.8123    0.9069 H   0  0  0  0  0  0  0  0  0  0  0  0
    0.0278   -2.4484   -2.0899 H   0  0  0  0  0  0  0  0  0  0  0  0
    0.0517   -4.6809   -1.1821 H   0  0  0  0  0  0  0  0  0  0  0  0
    0.0379   -2.5860    3.2899 H   0  0  0  0  0  0  0  0  0  0  0  0
   -1.1692    0.6371    3.9008 H   0  0  0  0  0  0  0  0  0  0  0  0
    2.1203   -0.4352    1.8003 H   0  0  0  0  0  0  0  0  0  0  0  0
   -1.3081   -7.7527    1.6632 H   0  0  0  0  0  0  0  0  0  0  0  0
   -2.0248   -6.4878    0.6317 H   0  0  0  0  0  0  0  0  0  0  0  0
   -1.9667   -8.7859   -0.4463 H   0  0  0  0  0  0  0  0  0  0  0  0
   -1.1162   -7.5278   -1.3765 H   0  0  0  0  0  0  0  0  0  0  0  0
    2.1601   -8.7480   -0.4330 H   0  0  0  0  0  0  0  0  0  0  0  0
    1.2927   -7.5057   -1.3687 H   0  0  0  0  0  0  0  0  0  0  0  0
    2.1683   -6.4485    0.6358 H   0  0  0  0  0  0  0  0  0  0  0  0
    1.4733   -7.7266    1.6659 H   0  0  0  0  0  0  0  0  0  0  0  0
  1  2  1  0  0  0  0
  1 28  1  0  0  0  0
  1 29  1  0  0  0  0
  1 30  1  0  0  0  0
  2 12  1  0  0  0  0
  2  3  1  0  0  0  0
  3  4  2  0  0  0  0
  3  5  1  0  0  0  0
  5  6  1  0  0  0  0
  5 31  1  0  0  0  0
  6 11  2  0  0  0  0
  6  7  1  0  0  0  0
  7  8  2  0  0  0  0
  7 32  1  0  0  0  0
  8  9  1  0  0  0  0
  8 22  1  0  0  0  0
  9 10  2  0  0  0  0
  9 19  1  0  0  0  0
 10 11  1  0  0  0  0
 10 33  1  0  0  0  0
 11 12  1  0  0  0  0
 12 18  1  0  0  0  0
 12 13  1  0  0  0  0
 13 14  2  0  0  0  0
 13 15  1  0  0  0  0
 15 16  1  0  0  0  0
 15 34  1  0  0  0  0
 16 17  2  0  0  0  0
 16 18  1  0  0  0  0
 18 35  1  0  0  0  0
 19 20  2  0  0  0  0
 19 21  1  0  0  0  0
 22 27  1  0  0  0  0
 22 23  1  0  0  0  0
 23 24  1  0  0  0  0
 23 36  1  0  0  0  0
 23 37  1  0  0  0  0
 24 25  1  0  0  0  0
 24 38  1  0  0  0  0
 24 39  1  0  0  0  0
 25 26  1  0  0  0  0
 26 27  1  0  0  0  0
 26 40  1  0  0  0  0
 26 41  1  0  0  0  0
 27 42  1  0  0  0  0
 27 43  1  0  0  0  0
M  CHG  2  19   1  21  -1
M  END
$$$$
CHEMBL61955
  -OEChem-07121202273D

 42 45  0     1  0  0  0  0  0999 V2000
   -0.0178    1.4608    0.0101 C   0  0  0  0  0  0  0  0  0  0  0  0
    0.0021   -0.0041    0.0020 N   0  0  0  0  0  0  0  0  0  0  0  0
    0.0059   -0.6866   -1.1617 C   0  0  0  0  0  0  0  0  0  0  0  0
   -0.0088   -0.0607   -2.2040 O   0  0  0  0  0  0  0  0  0  0  0  0
    0.0258   -2.0247   -1.2170 N   0  0  0  0  0  0  0  0  0  0  0  0
    0.0472   -2.8404   -0.0853 C   0  0  0  0  0  0  0  0  0  0  0  0
    0.0699   -4.2215   -0.2039 C   0  0  0  0  0  0  0  0  0  0  0  0
    0.0923   -5.0120    0.9366 C   0  0  0  0  0  0  0  0  0  0  0  0
    0.0913   -4.4226    2.1953 C   0  0  0  0  0  0  0  0  0  0  0  0
    0.0672   -3.0446    2.3129 C   0  0  0  0  0  0  0  0  0  0  0  0
    0.0454   -2.2604    1.1826 C   0  0  0  0  0  0  0  0  0  0  0  0
    0.0242   -0.7586    1.2571 C   0  0  1  0  0  0  0  0  0  0  0  0
    1.2099   -0.2990    2.0668 C   0  0  0  0  0  0  0  0  0  0  0  0
    2.5079   -0.4382    1.7518 O   0  5  0  0  0  0  0  0  0  0  0  0
    0.7151    0.2637    3.1385 N   0  0  0  0  0  0  0  0  0  0  0  0
   -0.6247    0.2432    3.1552 C   0  0  0  0  0  0  0  0  0  0  0  0
   -1.3011    0.7092    4.0531 O   0  0  0  0  0  0  0  0  0  0  0  0
   -1.1354   -0.3554    2.0586 N   0  0  0  0  0  0  0  0  0  0  0  0
    0.1154   -5.2691    3.4094 N   0  3  0  0  0  0  0  0  0  0  0  0
    0.1145   -4.7560    4.5041 O   0  0  0  0  0  0  0  0  0  0  0  0
    0.1360   -6.4735    3.3062 O   0  5  0  0  0  0  0  0  0  0  0  0
    0.1154   -6.4036    0.8193 N   0  0  0  0  0  0  0  0  0  0  0  0
   -1.1334   -7.1796    0.7591 C   0  0  0  0  0  0  0  0  0  0  0  0
   -1.0596   -8.1216   -0.4481 C   0  0  0  0  0  0  0  0  0  0  0  0
    0.1536   -8.8751   -0.3836 O   0  0  0  0  0  0  0  0  0  0  0  0
    1.3403   -8.0811   -0.4552 C   0  0  0  0  0  0  0  0  0  0  0  0
    1.3894   -7.1365    0.7459 C   0  0  0  0  0  0  0  0  0  0  0  0
    1.0048    1.8381    0.0023 H   0  0  0  0  0  0  0  0  0  0  0  0
   -0.5450    1.8219   -0.8730 H   0  0  0  0  0  0  0  0  0  0  0  0
   -0.5280    1.8123    0.9069 H   0  0  0  0  0  0  0  0  0  0  0  0
    0.0249   -2.4488   -2.0894 H   0  0  0  0  0  0  0  0  0  0  0  0
    0.0697   -4.6810   -1.1813 H   0  0  0  0  0  0  0  0  0  0  0  0
    0.0656   -2.5851    3.2903 H   0  0  0  0  0  0  0  0  0  0  0  0
   -2.0721   -0.4897    1.8453 H   0  0  0  0  0  0  0  0  0  0  0  0
   -1.2479   -7.7624    1.6730 H   0  0  0  0  0  0  0  0  0  0  0  0
   -1.9807   -6.5034    0.6457 H   0  0  0  0  0  0  0  0  0  0  0  0
   -1.9116   -8.8013   -0.4321 H   0  0  0  0  0  0  0  0  0  0  0  0
   -1.0765   -7.5368   -1.3678 H   0  0  0  0  0  0  0  0  0  0  0  0
    2.2148   -8.7316   -0.4443 H   0  0  0  0  0  0  0  0  0  0  0  0
    1.3321   -7.4962   -1.3749 H   0  0  0  0  0  0  0  0  0  0  0  0
    2.2118   -6.4317    0.6239 H   0  0  0  0  0  0  0  0  0  0  0  0
    1.5332   -7.7149    1.6586 H   0  0  0  0  0  0  0  0  0  0  0  0
  1  2  1  0  0  0  0
  1 28  1  0  0  0  0
  1 29  1  0  0  0  0
  1 30  1  0  0  0  0
  2 12  1  0  0  0  0
  2  3  1  0  0  0  0
  3  4  2  0  0  0  0
  3  5  1  0  0  0  0
  5  6  1  0  0  0  0
  5 31  1  0  0  0  0
  6 11  2  0  0  0  0
  6  7  1  0  0  0  0
  7  8  2  0  0  0  0
  7 32  1  0  0  0  0
  8  9  1  0  0  0  0
  8 22  1  0  0  0  0
  9 10  2  0  0  0  0
  9 19  1  0  0  0  0
 10 11  1  0  0  0  0
 10 33  1  0  0  0  0
 11 12  1  0  0  0  0
 12 18  1  0  0  0  0
 12 13  1  0  0  0  0
 13 14  1  0  0  0  0
 13 15  2  0  0  0  0
 15 16  1  0  0  0  0
 16 17  2  0  0  0  0
 16 18  1  0  0  0  0
 18 34  1  0  0  0  0
 19 20  2  0  0  0  0
 19 21  1  0  0  0  0
 22 27  1  0  0  0  0
 22 23  1  0  0  0  0
 23 24  1  0  0  0  0
 23 35  1  0  0  0  0
 23 36  1  0  0  0  0
 24 25  1  0  0  0  0
 24 37  1  0  0  0  0
 24 38  1  0  0  0  0
 25 26  1  0  0  0  0
 26 27  1  0  0  0  0
 26 39  1  0  0  0  0
 26 40  1  0  0  0  0
 27 41  1  0  0  0  0
 27 42  1  0  0  0  0
M  CHG  3  14  -1  19   1  21  -1
M  END
$$$$
CHEMBL61955
  -OEChem-07121202273D

 43 46  0     1  0  0  0  0  0999 V2000
   -0.0178    1.4608    0.0101 C   0  0  0  0  0  0  0  0  0  0  0  0
    0.0021   -0.0041    0.0020 N   0  0  0  0  0  0  0  0  0  0  0  0
    0.0059   -0.6863   -1.1617 C   0  0  0  0  0  0  0  0  0  0  0  0
   -0.0080   -0.0602   -2.2039 O   0  0  0  0  0  0  0  0  0  0  0  0
    0.0249   -2.0245   -1.2174 N   0  0  0  0  0  0  0  0  0  0  0  0
    0.0466   -2.8402   -0.0858 C   0  0  0  0  0  0  0  0  0  0  0  0
    0.0695   -4.2213   -0.2047 C   0  0  0  0  0  0  0  0  0  0  0  0
    0.0927   -5.0121    0.9357 C   0  0  0  0  0  0  0  0  0  0  0  0
    0.0922   -4.4228    2.1944 C   0  0  0  0  0  0  0  0  0  0  0  0
    0.0681   -3.0449    2.3123 C   0  0  0  0  0  0  0  0  0  0  0  0
    0.0455   -2.2605    1.1821 C   0  0  0  0  0  0  0  0  0  0  0  0
    0.0242   -0.7585    1.2574 C   0  0  1  0  0  0  0  0  0  0  0  0
    1.2137   -0.3012    2.0637 C   0  0  0  0  0  0  0  0  0  0  0  0
    2.3858   -0.4271    1.7805 O   0  0  0  0  0  0  0  0  0  0  0  0
    0.6965    0.2783    3.1679 N   0  0  0  0  0  0  0  0  0  0  0  0
   -0.6421    0.2453    3.1602 C   0  0  0  0  0  0  0  0  0  0  0  0
   -1.3350    0.7055    4.0463 O   0  0  0  0  0  0  0  0  0  0  0  0
   -1.1345   -0.3552    2.0585 N   0  0  0  0  0  0  0  0  0  0  0  0
    0.1169   -5.2695    3.4083 N   0  3  0  0  0  0  0  0  0  0  0  0
    0.1164   -4.7567    4.5032 O   0  0  0  0  0  0  0  0  0  0  0  0
    0.1376   -6.4739    3.3050 O   0  5  0  0  0  0  0  0  0  0  0  0
    0.1162   -6.4036    0.8180 N   0  0  0  0  0  0  0  0  0  0  0  0
   -1.1324   -7.1800    0.7583 C   0  0  0  0  0  0  0  0  0  0  0  0
   -1.0589   -8.1217   -0.4491 C   0  0  0  0  0  0  0  0  0  0  0  0
    0.1545   -8.8749   -0.3854 O   0  0  0  0  0  0  0  0  0  0  0  0
    1.3409   -8.0805   -0.4574 C   0  0  0  0  0  0  0  0  0  0  0  0
    1.3903   -7.1362    0.7439 C   0  0  0  0  0  0  0  0  0  0  0  0
    1.0048    1.8381    0.0023 H   0  0  0  0  0  0  0  0  0  0  0  0
   -0.5450    1.8219   -0.8730 H   0  0  0  0  0  0  0  0  0  0  0  0
   -0.5280    1.8123    0.9069 H   0  0  0  0  0  0  0  0  0  0  0  0
    0.0232   -2.4484   -2.0899 H   0  0  0  0  0  0  0  0  0  0  0  0
    0.0691   -4.6806   -1.1822 H   0  0  0  0  0  0  0  0  0  0  0  0
    0.0669   -2.5856    3.2898 H   0  0  0  0  0  0  0  0  0  0  0  0
    1.2283    0.6695    3.8785 H   0  0  0  0  0  0  0  0  0  0  0  0
   -2.0694   -0.4929    1.8397 H   0  0  0  0  0  0  0  0  0  0  0  0
   -1.2463   -7.7630    1.6722 H   0  0  0  0  0  0  0  0  0  0  0  0
   -1.9800   -6.5039    0.6455 H   0  0  0  0  0  0  0  0  0  0  0  0
   -1.9107   -8.8016   -0.4329 H   0  0  0  0  0  0  0  0  0  0  0  0
   -1.0765   -7.5368   -1.3687 H   0  0  0  0  0  0  0  0  0  0  0  0
    2.2157   -8.7308   -0.4471 H   0  0  0  0  0  0  0  0  0  0  0  0
    1.3321   -7.4954   -1.3770 H   0  0  0  0  0  0  0  0  0  0  0  0
    2.2126   -6.4311    0.6216 H   0  0  0  0  0  0  0  0  0  0  0  0
    1.5348   -7.7147    1.6563 H   0  0  0  0  0  0  0  0  0  0  0  0
  1  2  1  0  0  0  0
  1 28  1  0  0  0  0
  1 29  1  0  0  0  0
  1 30  1  0  0  0  0
  2 12  1  0  0  0  0
  2  3  1  0  0  0  0
  3  4  2  0  0  0  0
  3  5  1  0  0  0  0
  5  6  1  0  0  0  0
  5 31  1  0  0  0  0
  6 11  2  0  0  0  0
  6  7  1  0  0  0  0
  7  8  2  0  0  0  0
  7 32  1  0  0  0  0
  8  9  1  0  0  0  0
  8 22  1  0  0  0  0
  9 10  2  0  0  0  0
  9 19  1  0  0  0  0
 10 11  1  0  0  0  0
 10 33  1  0  0  0  0
 11 12  1  0  0  0  0
 12 18  1  0  0  0  0
 12 13  1  0  0  0  0
 13 14  2  0  0  0  0
 13 15  1  0  0  0  0
 15 16  1  0  0  0  0
 15 34  1  0  0  0  0
 16 17  2  0  0  0  0
 16 18  1  0  0  0  0
 18 35  1  0  0  0  0
 19 20  2  0  0  0  0
 19 21  1  0  0  0  0
 22 27  1  0  0  0  0
 22 23  1  0  0  0  0
 23 24  1  0  0  0  0
 23 36  1  0  0  0  0
 23 37  1  0  0  0  0
 24 25  1  0  0  0  0
 24 38  1  0  0  0  0
 24 39  1  0  0  0  0
 25 26  1  0  0  0  0
 26 27  1  0  0  0  0
 26 40  1  0  0  0  0
 26 41  1  0  0  0  0
 27 42  1  0  0  0  0
 27 43  1  0  0  0  0
M  CHG  2  19   1  21  -1
M  END
$$$$
CHEMBL19289
  -OEChem-07121202273D

 36 39  0     0  0  0  0  0  0999 V2000
   -0.0165    1.3627    0.0095 C   0  0  0  0  0  0  0  0  0  0  0  0
    1.1654    2.0924    0.0022 C   0  0  0  0  0  0  0  0  0  0  0  0
    2.3861    1.4540   -0.0134 C   0  0  0  0  0  0  0  0  0  0  0  0
    2.4294    0.0605   -0.0213 C   0  0  0  0  0  0  0  0  0  0  0  0
    1.2244   -0.6786   -0.0133 C   0  0  0  0  0  0  0  0  0  0  0  0
    0.0021   -0.0041    0.0020 C   0  0  0  0  0  0  0  0  0  0  0  0
    1.3000   -2.1396   -0.0224 C   0  0  0  0  0  0  0  0  0  0  0  0
    2.4575   -2.7306   -0.0371 N   0  0  0  0  0  0  0  0  0  0  0  0
    3.6626   -2.0276   -0.0452 N   0  0  0  0  0  0  0  0  0  0  0  0
    3.6977   -0.6787   -0.0384 C   0  0  0  0  0  0  0  0  0  0  0  0
    4.7616   -0.0856   -0.0461 O   0  0  0  0  0  0  0  0  0  0  0  0
    4.9232   -2.7737   -0.0618 C   0  0  0  0  0  0  0  0  0  0  0  0
    5.3696   -3.0372    1.3533 C   0  0  0  0  0  0  0  0  0  0  0  0
    5.0984   -4.0580    2.1203 N   0  0  0  0  0  0  0  0  0  0  0  0
    5.5692   -4.1679    3.3792 C   0  0  0  0  0  0  0  0  0  0  0  0
    5.3547   -5.2110    4.3117 C   0  0  0  0  0  0  0  0  0  0  0  0
    5.9338   -5.1244    5.5563 C   0  0  0  0  0  0  0  0  0  0  0  0
    6.7166   -4.0317    5.8952 C   0  0  0  0  0  0  0  0  0  0  0  0
    6.9145   -3.0600    5.0235 N   0  0  0  0  0  0  0  0  0  0  0  0
    6.3839   -3.1010    3.8277 C   0  0  0  0  0  0  0  0  0  0  0  0
    6.4110   -2.0352    2.4045 S   0  0  0  0  0  0  0  0  0  0  0  0
    0.0356   -2.9595   -0.0143 C   0  0  0  0  0  0  0  0  0  0  0  0
    0.3870   -4.4249   -0.0262 C   0  0  0  0  0  0  0  0  0  0  0  0
    1.5559   -4.7714   -0.0401 O   0  0  0  0  0  0  0  0  0  0  0  0
   -0.4975   -5.2640   -0.0221 O   0  5  0  0  0  0  0  0  0  0  0  0
   -0.9631    1.8823    0.0259 H   0  0  0  0  0  0  0  0  0  0  0  0
    1.1269    3.1717    0.0083 H   0  0  0  0  0  0  0  0  0  0  0  0
    3.3010    2.0277   -0.0197 H   0  0  0  0  0  0  0  0  0  0  0  0
   -0.9242   -0.5594    0.0075 H   0  0  0  0  0  0  0  0  0  0  0  0
    4.7775   -3.7219   -0.5793 H   0  0  0  0  0  0  0  0  0  0  0  0
    5.6841   -2.1901   -0.5800 H   0  0  0  0  0  0  0  0  0  0  0  0
    4.7446   -6.0627    4.0497 H   0  0  0  0  0  0  0  0  0  0  0  0
    5.7770   -5.9144    6.2758 H   0  0  0  0  0  0  0  0  0  0  0  0
    7.1658   -3.9749    6.8757 H   0  0  0  0  0  0  0  0  0  0  0  0
   -0.5398   -2.7311    0.8829 H   0  0  0  0  0  0  0  0  0  0  0  0
   -0.5578   -2.7210   -0.8970 H   0  0  0  0  0  0  0  0  0  0  0  0
  1  6  2  0  0  0  0
  1  2  1  0  0  0  0
  1 26  1  0  0  0  0
  2  3  2  0  0  0  0
  2 27  1  0  0  0  0
  3  4  1  0  0  0  0
  3 28  1  0  0  0  0
  4 10  1  0  0  0  0
  4  5  2  0  0  0  0
  5  6  1  0  0  0  0
  5  7  1  0  0  0  0
  6 29  1  0  0  0  0
  7  8  2  0  0  0  0
  7 22  1  0  0  0  0
  8  9  1  0  0  0  0
  9 10  1  0  0  0  0
  9 12  1  0  0  0  0
 10 11  2  0  0  0  0
 12 13  1  0  0  0  0
 12 30  1  0  0  0  0
 12 31  1  0  0  0  0
 13 21  1  0  0  0  0
 13 14  2  0  0  0  0
 14 15  1  0  0  0  0
 15 20  2  0  0  0  0
 15 16  1  0  0  0  0
 16 17  2  0  0  0  0
 16 32  1  0  0  0  0
 17 18  1  0  0  0  0
 17 33  1  0  0  0  0
 18 19  2  0  0  0  0
 18 34  1  0  0  0  0
 19 20  1  0  0  0  0
 20 21  1  0  0  0  0
 22 23  1  0  0  0  0
 22 35  1  0  0  0  0
 22 36  1  0  0  0  0
 23 24  2  0  0  0  0
 23 25  1  0  0  0  0
M  CHG  1  25  -1
M  END
$$$$
CHEMBL284990
  -OEChem-07121202273D

 32 33  0     1  0  0  0  0  0999 V2000
   -0.0187    1.5258    0.0104 C   0  0  0  0  0  0  0  0  0  0  0  0
    0.0021   -0.0041    0.0020 C   0  0  0  0  0  0  0  0  0  0  0  0
   -1.4333   -0.5336    0.0129 C   0  0  0  0  0  0  0  0  0  0  0  0
   -1.4134   -1.9985    0.0048 N   0  0  0  0  0  0  0  0  0  0  0  0
   -1.4084   -2.7707   -1.1587 C   0  0  0  0  0  0  0  0  0  0  0  0
   -1.4209   -2.3953   -2.5006 C   0  0  0  0  0  0  0  0  0  0  0  0
   -1.4128   -3.3569   -3.4895 C   0  0  0  0  0  0  0  0  0  0  0  0
   -1.3925   -4.7014   -3.1578 C   0  0  0  0  0  0  0  0  0  0  0  0
   -1.3800   -5.0814   -1.8252 C   0  0  0  0  0  0  0  0  0  0  0  0
   -1.3877   -4.1218   -0.8378 C   0  0  0  0  0  0  0  0  0  0  0  0
   -1.3790   -4.2006    0.6715 C   0  0  2  0  0  0  0  0  0  0  0  0
   -1.3922   -2.7536    1.1161 C   0  0  0  0  0  0  0  0  0  0  0  0
   -1.3870   -2.3514    2.2604 O   0  0  0  0  0  0  0  0  0  0  0  0
   -0.1089   -4.8969    1.1645 C   0  0  2  0  0  0  0  0  0  0  0  0
   -0.0521   -6.2610    0.6142 C   0  0  0  0  0  0  0  0  0  0  0  0
   -0.0082   -7.3137    0.1895 N   0  0  0  0  0  0  0  0  0  0  0  0
   -0.1243   -4.9628    2.6699 C   0  0  0  0  0  0  0  0  0  0  0  0
    0.4312   -5.8829    3.2456 O   0  0  0  0  0  0  0  0  0  0  0  0
   -0.6922   -4.0960    3.3123 O   0  5  0  0  0  0  0  0  0  0  0  0
   -1.3855   -5.6393   -4.1302 F   0  0  0  0  0  0  0  0  0  0  0  0
    1.0039    1.9031    0.0027 H   0  0  0  0  0  0  0  0  0  0  0  0
   -0.5459    1.8868   -0.8726 H   0  0  0  0  0  0  0  0  0  0  0  0
   -0.5289    1.8773    0.9072 H   0  0  0  0  0  0  0  0  0  0  0  0
    0.5123   -0.3556   -0.8948 H   0  0  0  0  0  0  0  0  0  0  0  0
    0.5293   -0.3651    0.8851 H   0  0  0  0  0  0  0  0  0  0  0  0
   -1.9435   -0.1821    0.9097 H   0  0  0  0  0  0  0  0  0  0  0  0
   -1.9605   -0.1726   -0.8702 H   0  0  0  0  0  0  0  0  0  0  0  0
   -1.4374   -1.3488   -2.7671 H   0  0  0  0  0  0  0  0  0  0  0  0
   -1.4225   -3.0598   -4.5278 H   0  0  0  0  0  0  0  0  0  0  0  0
   -1.3646   -6.1286   -1.5615 H   0  0  0  0  0  0  0  0  0  0  0  0
   -2.2658   -4.7220    1.0317 H   0  0  0  0  0  0  0  0  0  0  0  0
    0.7649   -4.3352    0.8343 H   0  0  0  0  0  0  0  0  0  0  0  0
  1  2  1  0  0  0  0
  1 21  1  0  0  0  0
  1 22  1  0  0  0  0
  1 23  1  0  0  0  0
  2  3  1  0  0  0  0
  2 24  1  0  0  0  0
  2 25  1  0  0  0  0
  3  4  1  0  0  0  0
  3 26  1  0  0  0  0
  3 27  1  0  0  0  0
  4 12  1  0  0  0  0
  4  5  1  0  0  0  0
  5 10  2  0  0  0  0
  5  6  1  0  0  0  0
  6  7  2  0  0  0  0
  6 28  1  0  0  0  0
  7  8  1  0  0  0  0
  7 29  1  0  0  0  0
  8  9  2  0  0  0  0
  8 20  1  0  0  0  0
  9 10  1  0  0  0  0
  9 30  1  0  0  0  0
 10 11  1  0  0  0  0
 11 12  1  0  0  0  0
 11 14  1  0  0  0  0
 11 31  1  0  0  0  0
 12 13  2  0  0  0  0
 14 15  1  0  0  0  0
 14 17  1  0  0  0  0
 14 32  1  0  0  0  0
 15 16  3  0  0  0  0
 17 18  2  0  0  0  0
 17 19  1  0  0  0  0
M  CHG  1  19  -1
M  END
$$$$
CHEMBL284990
  -OEChem-07121202273D

 32 33  0     1  0  0  0  0  0999 V2000
   -0.0187    1.5258    0.0104 C   0  0  0  0  0  0  0  0  0  0  0  0
    0.0021   -0.0041    0.0020 C   0  0  0  0  0  0  0  0  0  0  0  0
   -1.4333   -0.5336    0.0129 C   0  0  0  0  0  0  0  0  0  0  0  0
   -1.4134   -1.9985    0.0048 N   0  0  0  0  0  0  0  0  0  0  0  0
   -1.4084   -2.7707   -1.1587 C   0  0  0  0  0  0  0  0  0  0  0  0
   -1.4209   -2.3953   -2.5006 C   0  0  0  0  0  0  0  0  0  0  0  0
   -1.4128   -3.3569   -3.4895 C   0  0  0  0  0  0  0  0  0  0  0  0
   -1.3925   -4.7014   -3.1578 C   0  0  0  0  0  0  0  0  0  0  0  0
   -1.3800   -5.0814   -1.8252 C   0  0  0  0  0  0  0  0  0  0  0  0
   -1.3877   -4.1218   -0.8378 C   0  0  0  0  0  0  0  0  0  0  0  0
   -1.3790   -4.2006    0.6715 C   0  0  2  0  0  0  0  0  0  0  0  0
   -1.3922   -2.7536    1.1161 C   0  0  0  0  0  0  0  0  0  0  0  0
   -1.3870   -2.3514    2.2604 O   0  0  0  0  0  0  0  0  0  0  0  0
   -0.1089   -4.8969    1.1645 C   0  0  1  0  0  0  0  0  0  0  0  0
   -0.1239   -4.9613    2.6350 C   0  0  0  0  0  0  0  0  0  0  0  0
   -0.1355   -5.0109    3.7698 N   0  0  0  0  0  0  0  0  0  0  0  0
   -0.0507   -6.2934    0.6011 C   0  0  0  0  0  0  0  0  0  0  0  0
    1.0114   -6.7514    0.2155 O   0  0  0  0  0  0  0  0  0  0  0  0
   -1.0657   -6.9653    0.5310 O   0  5  0  0  0  0  0  0  0  0  0  0
   -1.3855   -5.6393   -4.1302 F   0  0  0  0  0  0  0  0  0  0  0  0
    1.0039    1.9031    0.0027 H   0  0  0  0  0  0  0  0  0  0  0  0
   -0.5459    1.8868   -0.8726 H   0  0  0  0  0  0  0  0  0  0  0  0
   -0.5289    1.8773    0.9072 H   0  0  0  0  0  0  0  0  0  0  0  0
    0.5123   -0.3556   -0.8948 H   0  0  0  0  0  0  0  0  0  0  0  0
    0.5293   -0.3651    0.8851 H   0  0  0  0  0  0  0  0  0  0  0  0
   -1.9435   -0.1821    0.9097 H   0  0  0  0  0  0  0  0  0  0  0  0
   -1.9605   -0.1726   -0.8702 H   0  0  0  0  0  0  0  0  0  0  0  0
   -1.4374   -1.3488   -2.7671 H   0  0  0  0  0  0  0  0  0  0  0  0
   -1.4225   -3.0598   -4.5278 H   0  0  0  0  0  0  0  0  0  0  0  0
   -1.3646   -6.1286   -1.5615 H   0  0  0  0  0  0  0  0  0  0  0  0
   -2.2658   -4.7220    1.0317 H   0  0  0  0  0  0  0  0  0  0  0  0
    0.7649   -4.3352    0.8343 H   0  0  0  0  0  0  0  0  0  0  0  0
  1  2  1  0  0  0  0
  1 21  1  0  0  0  0
  1 22  1  0  0  0  0
  1 23  1  0  0  0  0
  2  3  1  0  0  0  0
  2 24  1  0  0  0  0
  2 25  1  0  0  0  0
  3  4  1  0  0  0  0
  3 26  1  0  0  0  0
  3 27  1  0  0  0  0
  4 12  1  0  0  0  0
  4  5  1  0  0  0  0
  5 10  2  0  0  0  0
  5  6  1  0  0  0  0
  6  7  2  0  0  0  0
  6 28  1  0  0  0  0
  7  8  1  0  0  0  0
  7 29  1  0  0  0  0
  8  9  2  0  0  0  0
  8 20  1  0  0  0  0
  9 10  1  0  0  0  0
  9 30  1  0  0  0  0
 10 11  1  0  0  0  0
 11 12  1  0  0  0  0
 11 14  1  0  0  0  0
 11 31  1  0  0  0  0
 12 13  2  0  0  0  0
 14 15  1  0  0  0  0
 14 17  1  0  0  0  0
 14 32  1  0  0  0  0
 15 16  3  0  0  0  0
 17 18  2  0  0  0  0
 17 19  1  0  0  0  0
M  CHG  1  19  -1
M  END
$$$$
CHEMBL284990
  -OEChem-07121202273D

 32 33  0     1  0  0  0  0  0999 V2000
   -0.0622    1.5368   -0.0242 C   0  0  0  0  0  0  0  0  0  0  0  0
   -0.0297    0.0072   -0.0212 C   0  0  0  0  0  0  0  0  0  0  0  0
   -1.4611   -0.5333   -0.0136 C   0  0  0  0  0  0  0  0  0  0  0  0
   -1.4300   -1.9980   -0.0108 N   0  0  0  0  0  0  0  0  0  0  0  0
   -1.4131   -2.7787   -1.1685 C   0  0  0  0  0  0  0  0  0  0  0  0
   -1.4217   -2.4133   -2.5132 C   0  0  0  0  0  0  0  0  0  0  0  0
   -1.4011   -3.3820   -3.4949 C   0  0  0  0  0  0  0  0  0  0  0  0
   -1.3723   -4.7239   -3.1532 C   0  0  0  0  0  0  0  0  0  0  0  0
   -1.3637   -5.0939   -1.8177 C   0  0  0  0  0  0  0  0  0  0  0  0
   -1.3837   -4.1272   -0.8375 C   0  0  0  0  0  0  0  0  0  0  0  0
   -1.3820   -4.1948    0.6723 C   0  0  1  0  0  0  0  0  0  0  0  0
   -1.4085   -2.7447    1.1061 C   0  0  0  0  0  0  0  0  0  0  0  0
   -1.4123   -2.3341    2.2474 O   0  0  0  0  0  0  0  0  0  0  0  0
   -2.6238   -4.9324    1.1772 C   0  0  2  0  0  0  0  0  0  0  0  0
   -3.8268   -4.1511    0.8468 C   0  0  0  0  0  0  0  0  0  0  0  0
   -4.7552   -3.5482    0.5919 N   0  0  0  0  0  0  0  0  0  0  0  0
   -2.5322   -5.1060    2.6714 C   0  0  0  0  0  0  0  0  0  0  0  0
   -3.5479   -5.2314    3.3339 O   0  0  0  0  0  0  0  0  0  0  0  0
   -1.4423   -5.1210    3.2176 O   0  5  0  0  0  0  0  0  0  0  0  0
   -1.3532   -5.6688   -4.1185 F   0  0  0  0  0  0  0  0  0  0  0  0
    0.9575    1.9219   -0.0296 H   0  0  0  0  0  0  0  0  0  0  0  0
   -0.5876    1.8873   -0.9126 H   0  0  0  0  0  0  0  0  0  0  0  0
   -0.5796    1.8910    0.8674 H   0  0  0  0  0  0  0  0  0  0  0  0
    0.4877   -0.3470   -0.9128 H   0  0  0  0  0  0  0  0  0  0  0  0
    0.4957   -0.3433    0.8671 H   0  0  0  0  0  0  0  0  0  0  0  0
   -1.9785   -0.1791    0.8780 H   0  0  0  0  0  0  0  0  0  0  0  0
   -1.9865   -0.1828   -0.9020 H   0  0  0  0  0  0  0  0  0  0  0  0
   -1.4448   -1.3689   -2.7875 H   0  0  0  0  0  0  0  0  0  0  0  0
   -1.4079   -3.0927   -4.5354 H   0  0  0  0  0  0  0  0  0  0  0  0
   -1.3416   -6.1390   -1.5462 H   0  0  0  0  0  0  0  0  0  0  0  0
   -0.4753   -4.6813    1.0318 H   0  0  0  0  0  0  0  0  0  0  0  0
   -2.6839   -5.9110    0.7008 H   0  0  0  0  0  0  0  0  0  0  0  0
  1  2  1  0  0  0  0
  1 21  1  0  0  0  0
  1 22  1  0  0  0  0
  1 23  1  0  0  0  0
  2  3  1  0  0  0  0
  2 24  1  0  0  0  0
  2 25  1  0  0  0  0
  3  4  1  0  0  0  0
  3 26  1  0  0  0  0
  3 27  1  0  0  0  0
  4 12  1  0  0  0  0
  4  5  1  0  0  0  0
  5 10  2  0  0  0  0
  5  6  1  0  0  0  0
  6  7  2  0  0  0  0
  6 28  1  0  0  0  0
  7  8  1  0  0  0  0
  7 29  1  0  0  0  0
  8  9  2  0  0  0  0
  8 20  1  0  0  0  0
  9 10  1  0  0  0  0
  9 30  1  0  0  0  0
 10 11  1  0  0  0  0
 11 12  1  0  0  0  0
 11 14  1  0  0  0  0
 11 31  1  0  0  0  0
 12 13  2  0  0  0  0
 14 15  1  0  0  0  0
 14 17  1  0  0  0  0
 14 32  1  0  0  0  0
 15 16  3  0  0  0  0
 17 18  2  0  0  0  0
 17 19  1  0  0  0  0
M  CHG  1  19  -1
M  END
$$$$
CHEMBL284990
  -OEChem-07121202273D

 32 33  0     1  0  0  0  0  0999 V2000
   -0.0187    1.5258    0.0104 C   0  0  0  0  0  0  0  0  0  0  0  0
    0.0021   -0.0041    0.0020 C   0  0  0  0  0  0  0  0  0  0  0  0
   -1.4333   -0.5336    0.0129 C   0  0  0  0  0  0  0  0  0  0  0  0
   -1.4134   -1.9985    0.0048 N   0  0  0  0  0  0  0  0  0  0  0  0
   -1.4084   -2.7707   -1.1587 C   0  0  0  0  0  0  0  0  0  0  0  0
   -1.4209   -2.3953   -2.5006 C   0  0  0  0  0  0  0  0  0  0  0  0
   -1.4128   -3.3569   -3.4895 C   0  0  0  0  0  0  0  0  0  0  0  0
   -1.3925   -4.7014   -3.1578 C   0  0  0  0  0  0  0  0  0  0  0  0
   -1.3800   -5.0814   -1.8252 C   0  0  0  0  0  0  0  0  0  0  0  0
   -1.3877   -4.1218   -0.8378 C   0  0  0  0  0  0  0  0  0  0  0  0
   -1.3790   -4.2006    0.6715 C   0  0  1  0  0  0  0  0  0  0  0  0
   -1.3922   -2.7536    1.1161 C   0  0  0  0  0  0  0  0  0  0  0  0
   -1.3870   -2.3514    2.2604 O   0  0  0  0  0  0  0  0  0  0  0  0
   -2.6238   -4.9324    1.1772 C   0  0  1  0  0  0  0  0  0  0  0  0
   -2.6476   -6.2977    0.6273 C   0  0  0  0  0  0  0  0  0  0  0  0
   -2.6661   -7.3513    0.2030 N   0  0  0  0  0  0  0  0  0  0  0  0
   -2.5913   -4.9976    2.6824 C   0  0  0  0  0  0  0  0  0  0  0  0
   -3.6160   -4.8319    3.3220 O   0  0  0  0  0  0  0  0  0  0  0  0
   -1.5404   -5.2162    3.2606 O   0  5  0  0  0  0  0  0  0  0  0  0
   -1.3855   -5.6393   -4.1302 F   0  0  0  0  0  0  0  0  0  0  0  0
    1.0039    1.9031    0.0027 H   0  0  0  0  0  0  0  0  0  0  0  0
   -0.5459    1.8868   -0.8726 H   0  0  0  0  0  0  0  0  0  0  0  0
   -0.5289    1.8773    0.9072 H   0  0  0  0  0  0  0  0  0  0  0  0
    0.5123   -0.3556   -0.8948 H   0  0  0  0  0  0  0  0  0  0  0  0
    0.5293   -0.3651    0.8851 H   0  0  0  0  0  0  0  0  0  0  0  0
   -1.9435   -0.1821    0.9097 H   0  0  0  0  0  0  0  0  0  0  0  0
   -1.9605   -0.1726   -0.8702 H   0  0  0  0  0  0  0  0  0  0  0  0
   -1.4374   -1.3488   -2.7671 H   0  0  0  0  0  0  0  0  0  0  0  0
   -1.4225   -3.0598   -4.5278 H   0  0  0  0  0  0  0  0  0  0  0  0
   -1.3646   -6.1286   -1.5615 H   0  0  0  0  0  0  0  0  0  0  0  0
   -0.4742   -4.6967    1.0227 H   0  0  0  0  0  0  0  0  0  0  0  0
   -3.5164   -4.3957    0.8559 H   0  0  0  0  0  0  0  0  0  0  0  0
  1  2  1  0  0  0  0
  1 21  1  0  0  0  0
  1 22  1  0  0  0  0
  1 23  1  0  0  0  0
  2  3  1  0  0  0  0
  2 24  1  0  0  0  0
  2 25  1  0  0  0  0
  3  4  1  0  0  0  0
  3 26  1  0  0  0  0
  3 27  1  0  0  0  0
  4 12  1  0  0  0  0
  4  5  1  0  0  0  0
  5 10  2  0  0  0  0
  5  6  1  0  0  0  0
  6  7  2  0  0  0  0
  6 28  1  0  0  0  0
  7  8  1  0  0  0  0
  7 29  1  0  0  0  0
  8  9  2  0  0  0  0
  8 20  1  0  0  0  0
  9 10  1  0  0  0  0
  9 30  1  0  0  0  0
 10 11  1  0  0  0  0
 11 12  1  0  0  0  0
 11 14  1  0  0  0  0
 11 31  1  0  0  0  0
 12 13  2  0  0  0  0
 14 15  1  0  0  0  0
 14 17  1  0  0  0  0
 14 32  1  0  0  0  0
 15 16  3  0  0  0  0
 17 18  2  0  0  0  0
 17 19  1  0  0  0  0
M  CHG  1  19  -1
M  END
$$$$
CHEMBL240725
  -OEChem-07121202273D

 30 32  0     0  0  0  0  0  0999 V2000
   -0.0184    1.5028    0.0103 C   0  0  0  0  0  0  0  0  0  0  0  0
    0.0021   -0.0041    0.0020 C   0  0  0  0  0  0  0  0  0  0  0  0
    0.0093   -0.8791   -1.1765 C   0  0  0  0  0  0  0  0  0  0  0  0
    0.0001   -0.6591   -2.5533 C   0  0  0  0  0  0  0  0  0  0  0  0
    0.0110   -1.7351   -3.4145 C   0  0  0  0  0  0  0  0  0  0  0  0
    0.0310   -3.0307   -2.9150 C   0  0  0  0  0  0  0  0  0  0  0  0
    0.0399   -3.2603   -1.5562 C   0  0  0  0  0  0  0  0  0  0  0  0
    0.0296   -2.1896   -0.6712 C   0  0  0  0  0  0  0  0  0  0  0  0
    0.0340   -2.0996    0.6744 O   0  0  0  0  0  0  0  0  0  0  0  0
    0.0232   -0.8144    1.0690 C   0  0  0  0  0  0  0  0  0  0  0  0
    0.0312   -0.2740    2.7460 S   0  0  0  0  0  0  0  0  0  0  0  0
    0.6038   -1.3270    3.5093 O   0  0  0  0  0  0  0  0  0  0  0  0
    0.5638    1.0434    2.7457 O   0  0  0  0  0  0  0  0  0  0  0  0
   -1.6494   -0.1377    3.2574 C   0  0  0  0  0  0  0  0  0  0  0  0
   -2.3678    1.0385    2.9860 C   0  0  0  0  0  0  0  0  0  0  0  0
   -3.6689    1.1122    3.3954 C   0  0  0  0  0  0  0  0  0  0  0  0
   -4.2116   -0.0037    4.0684 C   0  0  0  0  0  0  0  0  0  0  0  0
   -5.3696    0.0120    4.4542 O   0  0  0  0  0  0  0  0  0  0  0  0
   -3.4385   -1.0859    4.2801 N   0  0  0  0  0  0  0  0  0  0  0  0
   -3.8134   -1.8515    4.7428 H   0  0  0  0  0  0  0  0  0  0  0  0
   -2.2193   -1.1315    3.8805 N   0  0  0  0  0  0  0  0  0  0  0  0
   -0.0010   -1.4698   -5.1301 Cl  0  0  0  0  0  0  0  0  0  0  0  0
    1.0042    1.8801    0.0026 H   0  0  0  0  0  0  0  0  0  0  0  0
   -0.5455    1.8639   -0.8728 H   0  0  0  0  0  0  0  0  0  0  0  0
   -0.5286    1.8543    0.9071 H   0  0  0  0  0  0  0  0  0  0  0  0
   -0.0159    0.3482   -2.9425 H   0  0  0  0  0  0  0  0  0  0  0  0
    0.0395   -3.8669   -3.5985 H   0  0  0  0  0  0  0  0  0  0  0  0
    0.0548   -4.2724   -1.1795 H   0  0  0  0  0  0  0  0  0  0  0  0
   -1.9030    1.8638    2.4671 H   0  0  0  0  0  0  0  0  0  0  0  0
   -4.2627    1.9951    3.2105 H   0  0  0  0  0  0  0  0  0  0  0  0
  1  2  1  0  0  0  0
  1 23  1  0  0  0  0
  1 24  1  0  0  0  0
  1 25  1  0  0  0  0
  2 10  2  0  0  0  0
  2  3  1  0  0  0  0
  3  8  2  0  0  0  0
  3  4  1  0  0  0  0
  4  5  2  0  0  0  0
  4 26  1  0  0  0  0
  5  6  1  0  0  0  0
  5 22  1  0  0  0  0
  6  7  2  0  0  0  0
  6 27  1  0  0  0  0
  7  8  1  0  0  0  0
  7 28  1  0  0  0  0
  8  9  1  0  0  0  0
  9 10  1  0  0  0  0
 10 11  1  0  0  0  0
 11 12  2  0  0  0  0
 11 13  2  0  0  0  0
 11 14  1  0  0  0  0
 14 21  2  0  0  0  0
 14 15  1  0  0  0  0
 15 16  2  0  0  0  0
 15 29  1  0  0  0  0
 16 17  1  0  0  0  0
 16 30  1  0  0  0  0
 17 18  2  0  0  0  0
 17 19  1  0  0  0  0
 19 20  1  0  0  0  0
 19 21  1  0  0  0  0
M  END
$$$$
CHEMBL240725
  -OEChem-07121202273D

 29 31  0     0  0  0  0  0  0999 V2000
   -0.0184    1.5028    0.0103 C   0  0  0  0  0  0  0  0  0  0  0  0
    0.0021   -0.0041    0.0020 C   0  0  0  0  0  0  0  0  0  0  0  0
    0.0093   -0.8791   -1.1765 C   0  0  0  0  0  0  0  0  0  0  0  0
    0.0001   -0.6591   -2.5533 C   0  0  0  0  0  0  0  0  0  0  0  0
    0.0110   -1.7351   -3.4145 C   0  0  0  0  0  0  0  0  0  0  0  0
    0.0310   -3.0307   -2.9150 C   0  0  0  0  0  0  0  0  0  0  0  0
    0.0399   -3.2603   -1.5562 C   0  0  0  0  0  0  0  0  0  0  0  0
    0.0296   -2.1896   -0.6712 C   0  0  0  0  0  0  0  0  0  0  0  0
    0.0340   -2.0996    0.6744 O   0  0  0  0  0  0  0  0  0  0  0  0
    0.0232   -0.8144    1.0690 C   0  0  0  0  0  0  0  0  0  0  0  0
    0.0312   -0.2740    2.7460 S   0  0  0  0  0  0  0  0  0  0  0  0
    0.6038   -1.3270    3.5093 O   0  0  0  0  0  0  0  0  0  0  0  0
    0.5638    1.0434    2.7457 O   0  0  0  0  0  0  0  0  0  0  0  0
   -1.6494   -0.1377    3.2574 C   0  0  0  0  0  0  0  0  0  0  0  0
   -2.3325    1.0579    3.0853 C   0  0  0  0  0  0  0  0  0  0  0  0
   -3.6532    1.1193    3.5025 C   0  0  0  0  0  0  0  0  0  0  0  0
   -4.2121   -0.0238    4.0687 C   0  0  0  0  0  0  0  0  0  0  0  0
   -5.5012   -0.0139    4.4921 O   0  5  0  0  0  0  0  0  0  0  0  0
   -3.4807   -1.1199    4.1916 N   0  0  0  0  0  0  0  0  0  0  0  0
   -2.2600   -1.1729    3.7987 N   0  0  0  0  0  0  0  0  0  0  0  0
   -0.0010   -1.4698   -5.1301 Cl  0  0  0  0  0  0  0  0  0  0  0  0
    1.0042    1.8801    0.0026 H   0  0  0  0  0  0  0  0  0  0  0  0
   -0.5455    1.8639   -0.8728 H   0  0  0  0  0  0  0  0  0  0  0  0
   -0.5286    1.8543    0.9071 H   0  0  0  0  0  0  0  0  0  0  0  0
   -0.0159    0.3482   -2.9425 H   0  0  0  0  0  0  0  0  0  0  0  0
    0.0395   -3.8669   -3.5985 H   0  0  0  0  0  0  0  0  0  0  0  0
    0.0548   -4.2724   -1.1795 H   0  0  0  0  0  0  0  0  0  0  0  0
   -1.8496    1.9151    2.6400 H   0  0  0  0  0  0  0  0  0  0  0  0
   -4.2305    2.0253    3.3922 H   0  0  0  0  0  0  0  0  0  0  0  0
  1  2  1  0  0  0  0
  1 22  1  0  0  0  0
  1 23  1  0  0  0  0
  1 24  1  0  0  0  0
  2 10  2  0  0  0  0
  2  3  1  0  0  0  0
  3  8  2  0  0  0  0
  3  4  1  0  0  0  0
  4  5  2  0  0  0  0
  4 25  1  0  0  0  0
  5  6  1  0  0  0  0
  5 21  1  0  0  0  0
  6  7  2  0  0  0  0
  6 26  1  0  0  0  0
  7  8  1  0  0  0  0
  7 27  1  0  0  0  0
  8  9  1  0  0  0  0
  9 10  1  0  0  0  0
 10 11  1  0  0  0  0
 11 12  2  0  0  0  0
 11 13  2  0  0  0  0
 11 14  1  0  0  0  0
 14 20  2  0  0  0  0
 14 15  1  0  0  0  0
 15 16  2  0  0  0  0
 15 28  1  0  0  0  0
 16 17  1  0  0  0  0
 16 29  1  0  0  0  0
 17 18  1  0  0  0  0
 17 19  2  0  0  0  0
 19 20  1  0  0  0  0
M  CHG  1  18  -1
M  END
$$$$
CHEMBL342786
  -OEChem-07121202273D

 39 42  0     0  0  0  0  0  0999 V2000
   -0.0165    1.3620    0.0095 C   0  0  0  0  0  0  0  0  0  0  0  0
    1.1697    2.0834    0.0021 C   0  0  0  0  0  0  0  0  0  0  0  0
    2.3856    1.4362   -0.0134 C   0  0  0  0  0  0  0  0  0  0  0  0
    2.4281    0.0456   -0.0212 C   0  0  0  0  0  0  0  0  0  0  0  0
    1.2234   -0.6807   -0.0132 C   0  0  0  0  0  0  0  0  0  0  0  0
    0.0021   -0.0041    0.0020 C   0  0  0  0  0  0  0  0  0  0  0  0
    1.6036   -2.0953   -0.0245 C   0  0  0  0  0  0  0  0  0  0  0  0
    2.9451   -2.1410   -0.0380 C   0  0  0  0  0  0  0  0  0  0  0  0
    3.4551   -0.8713   -0.0363 N   0  0  0  0  0  0  0  0  0  0  0  0
    4.3995   -0.6501   -0.0442 H   0  0  0  0  0  0  0  0  0  0  0  0
    3.7676   -3.4037   -0.0533 C   0  0  0  0  0  0  0  0  0  0  0  0
    4.1214   -3.7393   -1.4348 N   0  0  0  0  0  0  0  0  0  0  0  0
    5.2677   -3.2538   -1.9557 C   0  0  0  0  0  0  0  0  0  0  0  0
    6.0012   -2.5456   -1.2892 O   0  0  0  0  0  0  0  0  0  0  0  0
    5.6142   -3.5958   -3.3407 C   0  0  0  0  0  0  0  0  0  0  0  0
    6.7812   -3.1323   -3.9467 C   0  0  0  0  0  0  0  0  0  0  0  0
    7.0533   -3.4872   -5.2497 C   0  0  0  0  0  0  0  0  0  0  0  0
    6.1786   -4.2985   -5.9611 C   0  0  0  0  0  0  0  0  0  0  0  0
    5.0288   -4.7644   -5.3872 C   0  0  0  0  0  0  0  0  0  0  0  0
    4.7268   -4.4217   -4.0679 C   0  0  0  0  0  0  0  0  0  0  0  0
    3.5102   -4.8938   -3.4066 C   0  0  0  0  0  0  0  0  0  0  0  0
    3.2671   -4.5569   -2.1750 N   0  0  0  0  0  0  0  0  0  0  0  0
    2.5416   -5.7758   -4.1516 C   0  0  0  0  0  0  0  0  0  0  0  0
    1.3816   -6.1192   -3.2530 C   0  0  0  0  0  0  0  0  0  0  0  0
    1.3448   -5.6877   -2.1133 O   0  0  0  0  0  0  0  0  0  0  0  0
    0.4799   -6.8285   -3.6657 O   0  5  0  0  0  0  0  0  0  0  0  0
   -0.9613    1.8849    0.0259 H   0  0  0  0  0  0  0  0  0  0  0  0
    1.1388    3.1630    0.0081 H   0  0  0  0  0  0  0  0  0  0  0  0
    3.3028    2.0064   -0.0198 H   0  0  0  0  0  0  0  0  0  0  0  0
   -0.9246   -0.5587    0.0082 H   0  0  0  0  0  0  0  0  0  0  0  0
    0.9320   -2.9411   -0.0220 H   0  0  0  0  0  0  0  0  0  0  0  0
    4.6771   -3.2519    0.5280 H   0  0  0  0  0  0  0  0  0  0  0  0
    3.1899   -4.2190    0.3821 H   0  0  0  0  0  0  0  0  0  0  0  0
    7.4654   -2.5006   -3.3997 H   0  0  0  0  0  0  0  0  0  0  0  0
    7.9560   -3.1306   -5.7232 H   0  0  0  0  0  0  0  0  0  0  0  0
    6.4099   -4.5646   -6.9819 H   0  0  0  0  0  0  0  0  0  0  0  0
    4.3573   -5.3945   -5.9516 H   0  0  0  0  0  0  0  0  0  0  0  0
    2.1751   -5.2497   -5.0330 H   0  0  0  0  0  0  0  0  0  0  0  0
    3.0466   -6.6916   -4.4589 H   0  0  0  0  0  0  0  0  0  0  0  0
  1  6  2  0  0  0  0
  1  2  1  0  0  0  0
  1 27  1  0  0  0  0
  2  3  2  0  0  0  0
  2 28  1  0  0  0  0
  3  4  1  0  0  0  0
  3 29  1  0  0  0  0
  4  9  1  0  0  0  0
  4  5  2  0  0  0  0
  5  6  1  0  0  0  0
  5  7  1  0  0  0  0
  6 30  1  0  0  0  0
  7  8  2  0  0  0  0
  7 31  1  0  0  0  0
  8  9  1  0  0  0  0
  8 11  1  0  0  0  0
  9 10  1  0  0  0  0
 11 12  1  0  0  0  0
 11 32  1  0  0  0  0
 11 33  1  0  0  0  0
 12 22  1  0  0  0  0
 12 13  1  0  0  0  0
 13 14  2  0  0  0  0
 13 15  1  0  0  0  0
 15 20  2  0  0  0  0
 15 16  1  0  0  0  0
 16 17  2  0  0  0  0
 16 34  1  0  0  0  0
 17 18  1  0  0  0  0
 17 35  1  0  0  0  0
 18 19  2  0  0  0  0
 18 36  1  0  0  0  0
 19 20  1  0  0  0  0
 19 37  1  0  0  0  0
 20 21  1  0  0  0  0
 21 22  2  0  0  0  0
 21 23  1  0  0  0  0
 23 24  1  0  0  0  0
 23 38  1  0  0  0  0
 23 39  1  0  0  0  0
 24 25  2  0  0  0  0
 24 26  1  0  0  0  0
M  CHG  1  26  -1
M  END
$$$$
CHEMBL195065
  -OEChem-07121202273D

 46 50  0     0  0  0  0  0  0999 V2000
   -0.0167    1.3791    0.0096 C   0  0  0  0  0  0  0  0  0  0  0  0
    1.1686    2.0922    0.0021 C   0  0  0  0  0  0  0  0  0  0  0  0
    2.3774    1.4264   -0.0129 C   0  0  0  0  0  0  0  0  0  0  0  0
    2.4024    0.0329   -0.0206 C   0  0  0  0  0  0  0  0  0  0  0  0
    1.2050   -0.6804   -0.0130 C   0  0  0  0  0  0  0  0  0  0  0  0
    0.0021   -0.0041    0.0020 C   0  0  0  0  0  0  0  0  0  0  0  0
    3.6983   -0.6883   -0.0373 C   0  0  0  0  0  0  0  0  0  0  0  0
    4.8964    0.0344   -0.0395 C   0  0  0  0  0  0  0  0  0  0  0  0
    6.0948   -0.6160   -0.0543 C   0  0  0  0  0  0  0  0  0  0  0  0
    6.1298   -2.0133   -0.0674 C   0  0  0  0  0  0  0  0  0  0  0  0
    4.9303   -2.7501   -0.0654 C   0  0  0  0  0  0  0  0  0  0  0  0
    3.7154   -2.0773   -0.0449 C   0  0  0  0  0  0  0  0  0  0  0  0
    5.2730   -4.0843   -0.0806 N   0  0  0  0  0  0  0  0  0  0  0  0
    6.6348   -4.2142   -0.0921 C   0  0  0  0  0  0  0  0  0  0  0  0
    7.2108   -3.0010   -0.0850 C   0  0  0  0  0  0  0  0  0  0  0  0
    8.6896   -2.7110   -0.0943 C   0  0  0  0  0  0  0  0  0  0  0  0
    9.1701   -2.5054    1.3191 C   0  0  0  0  0  0  0  0  0  0  0  0
    9.6275   -3.4012    2.1443 N   0  0  0  0  0  0  0  0  0  0  0  0
   10.0299   -3.0886    3.3937 C   0  0  0  0  0  0  0  0  0  0  0  0
   10.5465   -3.9199    4.4126 C   0  0  0  0  0  0  0  0  0  0  0  0
   10.8995   -3.3905    5.6311 C   0  0  0  0  0  0  0  0  0  0  0  0
   10.7613   -2.0334    5.8981 C   0  0  0  0  0  0  0  0  0  0  0  0
   10.2582   -1.1942    4.9198 C   0  0  0  0  0  0  0  0  0  0  0  0
    9.9023   -1.7156    3.6973 C   0  0  0  0  0  0  0  0  0  0  0  0
    9.2434   -1.0639    2.1847 S   0  0  0  0  0  0  0  0  0  0  0  0
   10.1180    0.1273    5.1629 F   0  0  0  0  0  0  0  0  0  0  0  0
   11.3907   -4.2064    6.5893 F   0  0  0  0  0  0  0  0  0  0  0  0
   10.6940   -5.2439    4.1881 F   0  0  0  0  0  0  0  0  0  0  0  0
    4.3211   -5.1979   -0.0835 C   0  0  0  0  0  0  0  0  0  0  0  0
    3.8894   -5.4860   -1.4983 C   0  0  0  0  0  0  0  0  0  0  0  0
    4.3355   -4.8226   -2.4189 O   0  0  0  0  0  0  0  0  0  0  0  0
    3.0940   -6.3825   -1.7224 O   0  5  0  0  0  0  0  0  0  0  0  0
   -0.9603    1.9042    0.0260 H   0  0  0  0  0  0  0  0  0  0  0  0
    1.1481    3.1719    0.0077 H   0  0  0  0  0  0  0  0  0  0  0  0
    3.3022    1.9841   -0.0191 H   0  0  0  0  0  0  0  0  0  0  0  0
    1.2185   -1.7603   -0.0193 H   0  0  0  0  0  0  0  0  0  0  0  0
   -0.9264   -0.5557    0.0079 H   0  0  0  0  0  0  0  0  0  0  0  0
    4.8719    1.1141   -0.0297 H   0  0  0  0  0  0  0  0  0  0  0  0
    7.0159   -0.0522   -0.0563 H   0  0  0  0  0  0  0  0  0  0  0  0
    2.7884   -2.6313   -0.0386 H   0  0  0  0  0  0  0  0  0  0  0  0
    7.1679   -5.1534   -0.1050 H   0  0  0  0  0  0  0  0  0  0  0  0
    9.2217   -3.5512   -0.5404 H   0  0  0  0  0  0  0  0  0  0  0  0
    8.8794   -1.8098   -0.6773 H   0  0  0  0  0  0  0  0  0  0  0  0
   11.0441   -1.6371    6.8621 H   0  0  0  0  0  0  0  0  0  0  0  0
    4.7964   -6.0833    0.3387 H   0  0  0  0  0  0  0  0  0  0  0  0
    3.4498   -4.9327    0.5153 H   0  0  0  0  0  0  0  0  0  0  0  0
  1  6  2  0  0  0  0
  1  2  1  0  0  0  0
  1 33  1  0  0  0  0
  2  3  2  0  0  0  0
  2 34  1  0  0  0  0
  3  4  1  0  0  0  0
  3 35  1  0  0  0  0
  4  5  2  0  0  0  0
  4  7  1  0  0  0  0
  5  6  1  0  0  0  0
  5 36  1  0  0  0  0
  6 37  1  0  0  0  0
  7 12  2  0  0  0  0
  7  8  1  0  0  0  0
  8  9  2  0  0  0  0
  8 38  1  0  0  0  0
  9 10  1  0  0  0  0
  9 39  1  0  0  0  0
 10 15  1  0  0  0  0
 10 11  2  0  0  0  0
 11 12  1  0  0  0  0
 11 13  1  0  0  0  0
 12 40  1  0  0  0  0
 13 14  1  0  0  0  0
 13 29  1  0  0  0  0
 14 15  2  0  0  0  0
 14 41  1  0  0  0  0
 15 16  1  0  0  0  0
 16 17  1  0  0  0  0
 16 42  1  0  0  0  0
 16 43  1  0  0  0  0
 17 25  1  0  0  0  0
 17 18  2  0  0  0  0
 18 19  1  0  0  0  0
 19 24  2  0  0  0  0
 19 20  1  0  0  0  0
 20 21  2  0  0  0  0
 20 28  1  0  0  0  0
 21 22  1  0  0  0  0
 21 27  1  0  0  0  0
 22 23  2  0  0  0  0
 22 44  1  0  0  0  0
 23 24  1  0  0  0  0
 23 26  1  0  0  0  0
 24 25  1  0  0  0  0
 29 30  1  0  0  0  0
 29 45  1  0  0  0  0
 29 46  1  0  0  0  0
 30 31  2  0  0  0  0
 30 32  1  0  0  0  0
M  CHG  1  32  -1
M  END
$$$$
CHEMBL364699
  -OEChem-07121202273D

 46 50  0     0  0  0  0  0  0999 V2000
   -0.0835    1.2871   -0.0514 C   0  0  0  0  0  0  0  0  0  0  0  0
    1.0841    2.0222    0.0511 C   0  0  0  0  0  0  0  0  0  0  0  0
    2.3071    1.3837    0.0511 C   0  0  0  0  0  0  0  0  0  0  0  0
    2.3648   -0.0068   -0.0527 C   0  0  0  0  0  0  0  0  0  0  0  0
    1.1834   -0.7424   -0.1557 C   0  0  0  0  0  0  0  0  0  0  0  0
   -0.0332   -0.0916   -0.1545 C   0  0  0  0  0  0  0  0  0  0  0  0
    3.6723   -0.6978   -0.0538 C   0  0  0  0  0  0  0  0  0  0  0  0
    4.0329   -1.6907    0.7965 C   0  0  0  0  0  0  0  0  0  0  0  0
    5.3971   -2.0796    0.4433 C   0  0  0  0  0  0  0  0  0  0  0  0
    6.2942   -3.0272    0.9450 C   0  0  0  0  0  0  0  0  0  0  0  0
    7.5330   -3.1524    0.3833 C   0  0  0  0  0  0  0  0  0  0  0  0
    7.9089   -2.3459   -0.6826 C   0  0  0  0  0  0  0  0  0  0  0  0
    7.0412   -1.4052   -1.1929 C   0  0  0  0  0  0  0  0  0  0  0  0
    5.7740   -1.2598   -0.6374 C   0  0  0  0  0  0  0  0  0  0  0  0
    4.7074   -0.4359   -0.9216 N   0  0  0  0  0  0  0  0  0  0  0  0
    4.6803    0.5704   -1.9859 C   0  0  0  0  0  0  0  0  0  0  0  0
    5.1832    1.8849   -1.4473 C   0  0  0  0  0  0  0  0  0  0  0  0
    5.5320    1.9730   -0.2824 O   0  0  0  0  0  0  0  0  0  0  0  0
    5.2414    2.8603   -2.1765 O   0  5  0  0  0  0  0  0  0  0  0  0
    3.1883   -2.2805    1.8964 C   0  0  0  0  0  0  0  0  0  0  0  0
    3.3480   -1.4575    3.1487 C   0  0  0  0  0  0  0  0  0  0  0  0
    2.5901   -0.4862    3.5669 N   0  0  0  0  0  0  0  0  0  0  0  0
    2.8407    0.1779    4.7144 C   0  0  0  0  0  0  0  0  0  0  0  0
    2.1354    1.2445    5.3152 C   0  0  0  0  0  0  0  0  0  0  0  0
    2.5681    1.7838    6.5032 C   0  0  0  0  0  0  0  0  0  0  0  0
    3.7026    1.3024    7.1461 C   0  0  0  0  0  0  0  0  0  0  0  0
    4.4142    0.2584    6.5819 C   0  0  0  0  0  0  0  0  0  0  0  0
    3.9882   -0.2874    5.3930 C   0  0  0  0  0  0  0  0  0  0  0  0
    4.5431   -1.5917    4.3262 S   0  0  0  0  0  0  0  0  0  0  0  0
    5.5187   -0.2216    7.1941 F   0  0  0  0  0  0  0  0  0  0  0  0
    1.8765    2.8036    7.0573 F   0  0  0  0  0  0  0  0  0  0  0  0
    1.0286    1.7378    4.7179 F   0  0  0  0  0  0  0  0  0  0  0  0
   -1.0385    1.7914   -0.0464 H   0  0  0  0  0  0  0  0  0  0  0  0
    1.0381    3.0983    0.1310 H   0  0  0  0  0  0  0  0  0  0  0  0
    3.2178    1.9586    0.1308 H   0  0  0  0  0  0  0  0  0  0  0  0
    1.2213   -1.8187   -0.2367 H   0  0  0  0  0  0  0  0  0  0  0  0
   -0.9482   -0.6597   -0.2342 H   0  0  0  0  0  0  0  0  0  0  0  0
    6.0090   -3.6577    1.7742 H   0  0  0  0  0  0  0  0  0  0  0  0
    8.2258   -3.8843    0.7716 H   0  0  0  0  0  0  0  0  0  0  0  0
    8.8919   -2.4569   -1.1160 H   0  0  0  0  0  0  0  0  0  0  0  0
    7.3438   -0.7825   -2.0218 H   0  0  0  0  0  0  0  0  0  0  0  0
    5.3182    0.2467   -2.8083 H   0  0  0  0  0  0  0  0  0  0  0  0
    3.6583    0.6920   -2.3450 H   0  0  0  0  0  0  0  0  0  0  0  0
    2.1418   -2.2788    1.5916 H   0  0  0  0  0  0  0  0  0  0  0  0
    3.5084   -3.3041    2.0911 H   0  0  0  0  0  0  0  0  0  0  0  0
    4.0263    1.7401    8.0788 H   0  0  0  0  0  0  0  0  0  0  0  0
  1  6  2  0  0  0  0
  1  2  1  0  0  0  0
  1 33  1  0  0  0  0
  2  3  2  0  0  0  0
  2 34  1  0  0  0  0
  3  4  1  0  0  0  0
  3 35  1  0  0  0  0
  4  5  2  0  0  0  0
  4  7  1  0  0  0  0
  5  6  1  0  0  0  0
  5 36  1  0  0  0  0
  6 37  1  0  0  0  0
  7 15  1  0  0  0  0
  7  8  2  0  0  0  0
  8  9  1  0  0  0  0
  8 20  1  0  0  0  0
  9 14  2  0  0  0  0
  9 10  1  0  0  0  0
 10 11  2  0  0  0  0
 10 38  1  0  0  0  0
 11 12  1  0  0  0  0
 11 39  1  0  0  0  0
 12 13  2  0  0  0  0
 12 40  1  0  0  0  0
 13 14  1  0  0  0  0
 13 41  1  0  0  0  0
 14 15  1  0  0  0  0
 15 16  1  0  0  0  0
 16 17  1  0  0  0  0
 16 42  1  0  0  0  0
 16 43  1  0  0  0  0
 17 18  2  0  0  0  0
 17 19  1  0  0  0  0
 20 21  1  0  0  0  0
 20 44  1  0  0  0  0
 20 45  1  0  0  0  0
 21 29  1  0  0  0  0
 21 22  2  0  0  0  0
 22 23  1  0  0  0  0
 23 28  2  0  0  0  0
 23 24  1  0  0  0  0
 24 25  2  0  0  0  0
 24 32  1  0  0  0  0
 25 26  1  0  0  0  0
 25 31  1  0  0  0  0
 26 27  2  0  0  0  0
 26 46  1  0  0  0  0
 27 28  1  0  0  0  0
 27 30  1  0  0  0  0
 28 29  1  0  0  0  0
M  CHG  1  19  -1
M  END
$$$$
CHEMBL371307
  -OEChem-07121202273D

 26 27  0     0  0  0  0  0  0999 V2000
   -0.0167    1.3778    0.0096 C   0  0  0  0  0  0  0  0  0  0  0  0
    1.1704    2.0860    0.0021 C   0  0  0  0  0  0  0  0  0  0  0  0
    2.3791    1.4110   -0.0130 C   0  0  0  0  0  0  0  0  0  0  0  0
    2.3979    0.0265   -0.0206 C   0  0  0  0  0  0  0  0  0  0  0  0
    1.2093   -0.6804   -0.0130 C   0  0  0  0  0  0  0  0  0  0  0  0
    0.0021   -0.0041    0.0020 C   0  0  0  0  0  0  0  0  0  0  0  0
    1.2317   -2.4162   -0.0225 Cl  0  0  0  0  0  0  0  0  0  0  0  0
    3.7128   -0.7096   -0.0376 C   0  0  0  0  0  0  0  0  0  0  0  0
    4.2573   -1.0140    1.6658 S   0  0  0  0  0  0  0  0  0  0  0  0
    4.5933    0.2130    2.2989 O   0  0  0  0  0  0  0  0  0  0  0  0
    3.3871   -1.9417    2.2994 O   0  0  0  0  0  0  0  0  0  0  0  0
    5.7884   -1.8711    1.5053 C   0  0  0  0  0  0  0  0  0  0  0  0
    6.9781   -1.1605    1.4419 C   0  0  0  0  0  0  0  0  0  0  0  0
    8.1589   -1.8767    1.3157 C   0  0  0  0  0  0  0  0  0  0  0  0
    8.0764   -3.2654    1.2604 C   0  0  0  0  0  0  0  0  0  0  0  0
    6.8937   -3.8558    1.3286 N   0  0  0  0  0  0  0  0  0  0  0  0
    5.8042   -3.1883    1.4509 N   0  0  0  0  0  0  0  0  0  0  0  0
    9.2037   -4.0105    1.1367 O   0  5  0  0  0  0  0  0  0  0  0  0
    3.5395    2.1027   -0.0208 F   0  0  0  0  0  0  0  0  0  0  0  0
   -0.9593    1.9047    0.0259 H   0  0  0  0  0  0  0  0  0  0  0  0
    1.1550    3.1658    0.0076 H   0  0  0  0  0  0  0  0  0  0  0  0
   -0.9260   -0.5564    0.0079 H   0  0  0  0  0  0  0  0  0  0  0  0
    3.5900   -1.6609   -0.5553 H   0  0  0  0  0  0  0  0  0  0  0  0
    4.4594   -0.1077   -0.5556 H   0  0  0  0  0  0  0  0  0  0  0  0
    6.9845   -0.0816    1.4891 H   0  0  0  0  0  0  0  0  0  0  0  0
    9.1127   -1.3729    1.2616 H   0  0  0  0  0  0  0  0  0  0  0  0
  1  6  2  0  0  0  0
  1  2  1  0  0  0  0
  1 20  1  0  0  0  0
  2  3  2  0  0  0  0
  2 21  1  0  0  0  0
  3  4  1  0  0  0  0
  3 19  1  0  0  0  0
  4  5  2  0  0  0  0
  4  8  1  0  0  0  0
  5  6  1  0  0  0  0
  5  7  1  0  0  0  0
  6 22  1  0  0  0  0
  8  9  1  0  0  0  0
  8 23  1  0  0  0  0
  8 24  1  0  0  0  0
  9 10  2  0  0  0  0
  9 11  2  0  0  0  0
  9 12  1  0  0  0  0
 12 13  2  0  0  0  0
 12 17  1  0  0  0  0
 13 14  1  0  0  0  0
 13 25  1  0  0  0  0
 14 15  2  0  0  0  0
 14 26  1  0  0  0  0
 15 18  1  0  0  0  0
 15 16  1  0  0  0  0
 16 17  2  0  0  0  0
M  CHG  1  18  -1
M  END
$$$$
CHEMBL7224
  -OEChem-07121202273D

 41 44  0     1  0  0  0  0  0999 V2000
   -0.0187    1.5258    0.0104 C   0  0  0  0  0  0  0  0  0  0  0  0
    0.0021   -0.0041    0.0020 C   0  0  0  0  0  0  0  0  0  0  0  0
   -1.3386   -0.4987    0.0122 O   0  0  0  0  0  0  0  0  0  0  0  0
   -1.4971   -1.8379    0.0065 C   0  0  0  0  0  0  0  0  0  0  0  0
   -0.5231   -2.5653   -0.0067 O   0  0  0  0  0  0  0  0  0  0  0  0
   -2.8441   -2.4167    0.0162 C   0  0  0  0  0  0  0  0  0  0  0  0
   -3.1563   -3.7322    0.0181 C   0  0  0  0  0  0  0  0  0  0  0  0
   -4.6274   -3.8826    0.0298 C   0  0  0  0  0  0  0  0  0  0  0  0
   -5.2200   -4.9432    0.0344 O   0  0  0  0  0  0  0  0  0  0  0  0
   -5.2123   -2.6710    0.0351 N   0  0  0  0  0  0  0  0  0  0  0  0
   -4.1504   -1.6579    0.0328 C   0  0  0  0  0  0  0  0  0  0  0  0
   -6.6537   -2.4094    0.0467 C   0  0  1  0  0  0  0  0  0  0  0  0
   -7.3137   -3.0836   -1.1310 C   0  0  0  0  0  0  0  0  0  0  0  0
   -7.1477   -2.9401   -2.4922 C   0  0  0  0  0  0  0  0  0  0  0  0
   -7.9018   -3.7031   -3.3662 C   0  0  0  0  0  0  0  0  0  0  0  0
   -8.8234   -4.6110   -2.8765 C   0  0  0  0  0  0  0  0  0  0  0  0
   -8.9960   -4.7611   -1.5161 C   0  0  0  0  0  0  0  0  0  0  0  0
   -8.2387   -3.9947   -0.6284 C   0  0  0  0  0  0  0  0  0  0  0  0
   -8.2189   -3.9517    0.8547 C   0  0  0  0  0  0  0  0  0  0  0  0
   -7.2815   -3.0137    1.2788 C   0  0  0  0  0  0  0  0  0  0  0  0
   -7.0797   -2.7914    2.6244 C   0  0  0  0  0  0  0  0  0  0  0  0
   -7.8096   -3.5019    3.5610 C   0  0  0  0  0  0  0  0  0  0  0  0
   -8.7429   -4.4362    3.1495 C   0  0  0  0  0  0  0  0  0  0  0  0
   -8.9517   -4.6647    1.8052 C   0  0  0  0  0  0  0  0  0  0  0  0
   -2.2645   -4.7494    0.0100 O   0  5  0  0  0  0  0  0  0  0  0  0
    1.0039    1.9031    0.0027 H   0  0  0  0  0  0  0  0  0  0  0  0
   -0.5459    1.8868   -0.8726 H   0  0  0  0  0  0  0  0  0  0  0  0
   -0.5289    1.8773    0.9072 H   0  0  0  0  0  0  0  0  0  0  0  0
    0.5123   -0.3556   -0.8948 H   0  0  0  0  0  0  0  0  0  0  0  0
    0.5293   -0.3651    0.8851 H   0  0  0  0  0  0  0  0  0  0  0  0
   -4.2150   -1.0424    0.9301 H   0  0  0  0  0  0  0  0  0  0  0  0
   -4.2326   -1.0338   -0.8571 H   0  0  0  0  0  0  0  0  0  0  0  0
   -6.8401   -1.3358    0.0187 H   0  0  0  0  0  0  0  0  0  0  0  0
   -6.4289   -2.2316   -2.8765 H   0  0  0  0  0  0  0  0  0  0  0  0
   -7.7709   -3.5893   -4.4322 H   0  0  0  0  0  0  0  0  0  0  0  0
   -9.4103   -5.2044   -3.5619 H   0  0  0  0  0  0  0  0  0  0  0  0
   -9.7169   -5.4708   -1.1380 H   0  0  0  0  0  0  0  0  0  0  0  0
   -6.3512   -2.0625    2.9477 H   0  0  0  0  0  0  0  0  0  0  0  0
   -7.6502   -3.3269    4.6147 H   0  0  0  0  0  0  0  0  0  0  0  0
   -9.3101   -4.9892    3.8835 H   0  0  0  0  0  0  0  0  0  0  0  0
   -9.6813   -5.3951    1.4882 H   0  0  0  0  0  0  0  0  0  0  0  0
  1  2  1  0  0  0  0
  1 26  1  0  0  0  0
  1 27  1  0  0  0  0
  1 28  1  0  0  0  0
  2  3  1  0  0  0  0
  2 29  1  0  0  0  0
  2 30  1  0  0  0  0
  3  4  1  0  0  0  0
  4  5  2  0  0  0  0
  4  6  1  0  0  0  0
  6 11  1  0  0  0  0
  6  7  2  0  0  0  0
  7  8  1  0  0  0  0
  7 25  1  0  0  0  0
  8  9  2  0  0  0  0
  8 10  1  0  0  0  0
 10 11  1  0  0  0  0
 10 12  1  0  0  0  0
 11 31  1  0  0  0  0
 11 32  1  0  0  0  0
 12 20  1  0  0  0  0
 12 13  1  0  0  0  0
 12 33  1  0  0  0  0
 13 18  2  0  0  0  0
 13 14  1  0  0  0  0
 14 15  2  0  0  0  0
 14 34  1  0  0  0  0
 15 16  1  0  0  0  0
 15 35  1  0  0  0  0
 16 17  2  0  0  0  0
 16 36  1  0  0  0  0
 17 18  1  0  0  0  0
 17 37  1  0  0  0  0
 18 19  1  0  0  0  0
 19 24  2  0  0  0  0
 19 20  1  0  0  0  0
 20 21  2  0  0  0  0
 21 22  1  0  0  0  0
 21 38  1  0  0  0  0
 22 23  2  0  0  0  0
 22 39  1  0  0  0  0
 23 24  1  0  0  0  0
 23 40  1  0  0  0  0
 24 41  1  0  0  0  0
M  CHG  1  25  -1
M  END
$$$$
CHEMBL282245
  -OEChem-07121202273D

 36 38  0     0  0  0  0  0  0999 V2000
   -0.0178    1.4608    0.0101 C   0  0  0  0  0  0  0  0  0  0  0  0
    0.0021   -0.0041    0.0020 N   0  0  0  0  0  0  0  0  0  0  0  0
    0.0241   -0.7433    1.2666 C   0  0  0  0  0  0  0  0  0  0  0  0
   -0.0004   -0.8243   -1.4366 S   0  0  0  0  0  0  0  0  0  0  0  0
   -0.5312   -2.1147   -1.1675 O   0  0  0  0  0  0  0  0  0  0  0  0
   -0.5723    0.0488   -2.4009 O   0  0  0  0  0  0  0  0  0  0  0  0
    1.6818   -1.0594   -1.9051 C   0  0  0  0  0  0  0  0  0  0  0  0
    2.3248   -0.1051   -2.6796 C   0  0  0  0  0  0  0  0  0  0  0  0
    3.6395   -0.2725   -3.0580 C   0  0  0  0  0  0  0  0  0  0  0  0
    4.3410   -1.4077   -2.6630 C   0  0  0  0  0  0  0  0  0  0  0  0
    3.6877   -2.3682   -1.8751 C   0  0  0  0  0  0  0  0  0  0  0  0
    2.3584   -2.1885   -1.4967 C   0  0  0  0  0  0  0  0  0  0  0  0
    4.4476   -3.5626   -1.4472 C   0  0  0  0  0  0  0  0  0  0  0  0
    3.9024   -4.5363   -0.9619 O   0  0  0  0  0  0  0  0  0  0  0  0
    5.9121   -3.4994   -1.6465 C   0  0  0  0  0  0  0  0  0  0  0  0
    6.7558   -4.4323   -1.0556 C   0  0  0  0  0  0  0  0  0  0  0  0
    8.1321   -4.3345   -1.2604 C   0  0  0  0  0  0  0  0  0  0  0  0
    8.6457   -3.2994   -2.0546 C   0  0  0  0  0  0  0  0  0  0  0  0
    7.8144   -2.3884   -2.6362 C   0  0  0  0  0  0  0  0  0  0  0  0
    6.4347   -2.4693   -2.4490 C   0  0  0  0  0  0  0  0  0  0  0  0
    5.6241   -1.5720   -3.0413 O   0  0  0  0  0  0  0  0  0  0  0  0
    9.0429   -5.3151   -0.6441 C   0  0  0  0  0  0  0  0  0  0  0  0
    8.5925   -6.2170    0.0487 O   0  0  0  0  0  0  0  0  0  0  0  0
   10.2494   -5.2272   -0.8252 O   0  5  0  0  0  0  0  0  0  0  0  0
    1.0048    1.8381    0.0023 H   0  0  0  0  0  0  0  0  0  0  0  0
   -0.5450    1.8219   -0.8730 H   0  0  0  0  0  0  0  0  0  0  0  0
   -0.5280    1.8123    0.9069 H   0  0  0  0  0  0  0  0  0  0  0  0
   -0.9979   -0.9406    1.5900 H   0  0  0  0  0  0  0  0  0  0  0  0
    0.5496   -1.6879    1.1262 H   0  0  0  0  0  0  0  0  0  0  0  0
    0.5371   -0.1514    2.0246 H   0  0  0  0  0  0  0  0  0  0  0  0
    1.7887    0.7795   -2.9901 H   0  0  0  0  0  0  0  0  0  0  0  0
    4.1261    0.4786   -3.6626 H   0  0  0  0  0  0  0  0  0  0  0  0
    1.8606   -2.9310   -0.8908 H   0  0  0  0  0  0  0  0  0  0  0  0
    6.3501   -5.2246   -0.4439 H   0  0  0  0  0  0  0  0  0  0  0  0
    9.7120   -3.2229   -2.2078 H   0  0  0  0  0  0  0  0  0  0  0  0
    8.2273   -1.5982   -3.2455 H   0  0  0  0  0  0  0  0  0  0  0  0
  1  2  1  0  0  0  0
  1 25  1  0  0  0  0
  1 26  1  0  0  0  0
  1 27  1  0  0  0  0
  2  3  1  0  0  0  0
  2  4  1  0  0  0  0
  3 28  1  0  0  0  0
  3 29  1  0  0  0  0
  3 30  1  0  0  0  0
  4  5  2  0  0  0  0
  4  6  2  0  0  0  0
  4  7  1  0  0  0  0
  7 12  2  0  0  0  0
  7  8  1  0  0  0  0
  8  9  2  0  0  0  0
  8 31  1  0  0  0  0
  9 10  1  0  0  0  0
  9 32  1  0  0  0  0
 10 21  1  0  0  0  0
 10 11  2  0  0  0  0
 11 12  1  0  0  0  0
 11 13  1  0  0  0  0
 12 33  1  0  0  0  0
 13 14  2  0  0  0  0
 13 15  1  0  0  0  0
 15 20  2  0  0  0  0
 15 16  1  0  0  0  0
 16 17  2  0  0  0  0
 16 34  1  0  0  0  0
 17 18  1  0  0  0  0
 17 22  1  0  0  0  0
 18 19  2  0  0  0  0
 18 35  1  0  0  0  0
 19 20  1  0  0  0  0
 19 36  1  0  0  0  0
 20 21  1  0  0  0  0
 22 23  2  0  0  0  0
 22 24  1  0  0  0  0
M  CHG  1  24  -1
M  END
$$$$
CHEMBL369911
  -OEChem-07121202273D

 29 31  0     0  0  0  0  0  0999 V2000
   -0.0164    1.3567    0.0095 C   0  0  0  0  0  0  0  0  0  0  0  0
    1.1686    2.0905    0.0021 C   0  0  0  0  0  0  0  0  0  0  0  0
    2.3785    1.4675   -0.0131 C   0  0  0  0  0  0  0  0  0  0  0  0
    2.4375    0.0634   -0.0211 C   0  0  0  0  0  0  0  0  0  0  0  0
    3.6681   -0.6153   -0.0364 C   0  0  0  0  0  0  0  0  0  0  0  0
    3.6865   -1.9761   -0.0434 C   0  0  0  0  0  0  0  0  0  0  0  0
    2.5015   -2.7098   -0.0357 C   0  0  0  0  0  0  0  0  0  0  0  0
    1.2917   -2.0868   -0.0209 C   0  0  0  0  0  0  0  0  0  0  0  0
    1.2327   -0.6827   -0.0133 C   0  0  0  0  0  0  0  0  0  0  0  0
    0.0021   -0.0041    0.0020 C   0  0  0  0  0  0  0  0  0  0  0  0
    5.2315   -2.8230   -0.0631 S   0  0  0  0  0  0  0  0  0  0  0  0
    4.9835   -4.1075   -0.6179 O   0  0  0  0  0  0  0  0  0  0  0  0
    6.1807   -1.9234   -0.6189 O   0  0  0  0  0  0  0  0  0  0  0  0
    5.7051   -3.0818    1.6142 C   0  0  0  0  0  0  0  0  0  0  0  0
    5.3142   -4.2371    2.2752 C   0  0  0  0  0  0  0  0  0  0  0  0
    5.7099   -4.3984    3.5946 C   0  0  0  0  0  0  0  0  0  0  0  0
    6.4753   -3.3899    4.1737 C   0  0  0  0  0  0  0  0  0  0  0  0
    6.7999   -2.3219    3.4624 N   0  0  0  0  0  0  0  0  0  0  0  0
    6.4356   -2.1801    2.2399 N   0  0  0  0  0  0  0  0  0  0  0  0
    6.8865   -3.5013    5.4620 O   0  5  0  0  0  0  0  0  0  0  0  0
   -0.9633    1.8757    0.0259 H   0  0  0  0  0  0  0  0  0  0  0  0
    1.1260    3.1696    0.0083 H   0  0  0  0  0  0  0  0  0  0  0  0
    3.2884    2.0491   -0.0194 H   0  0  0  0  0  0  0  0  0  0  0  0
    4.5943   -0.0599   -0.0428 H   0  0  0  0  0  0  0  0  0  0  0  0
    2.5441   -3.7890   -0.0419 H   0  0  0  0  0  0  0  0  0  0  0  0
    0.3816   -2.6684   -0.0154 H   0  0  0  0  0  0  0  0  0  0  0  0
   -0.9241   -0.5595    0.0082 H   0  0  0  0  0  0  0  0  0  0  0  0
    4.7192   -4.9883    1.7773 H   0  0  0  0  0  0  0  0  0  0  0  0
    5.4326   -5.2788    4.1554 H   0  0  0  0  0  0  0  0  0  0  0  0
  1 10  2  0  0  0  0
  1  2  1  0  0  0  0
  1 21  1  0  0  0  0
  2  3  2  0  0  0  0
  2 22  1  0  0  0  0
  3  4  1  0  0  0  0
  3 23  1  0  0  0  0
  4  9  2  0  0  0  0
  4  5  1  0  0  0  0
  5  6  2  0  0  0  0
  5 24  1  0  0  0  0
  6  7  1  0  0  0  0
  6 11  1  0  0  0  0
  7  8  2  0  0  0  0
  7 25  1  0  0  0  0
  8  9  1  0  0  0  0
  8 26  1  0  0  0  0
  9 10  1  0  0  0  0
 10 27  1  0  0  0  0
 11 12  2  0  0  0  0
 11 13  2  0  0  0  0
 11 14  1  0  0  0  0
 14 15  2  0  0  0  0
 14 19  1  0  0  0  0
 15 16  1  0  0  0  0
 15 28  1  0  0  0  0
 16 17  2  0  0  0  0
 16 29  1  0  0  0  0
 17 20  1  0  0  0  0
 17 18  1  0  0  0  0
 18 19  2  0  0  0  0
M  CHG  1  20  -1
M  END
$$$$
CHEMBL110030
  -OEChem-07121202273D

 64 69  0     0  0  0  0  0  0999 V2000
   -0.0184    1.5028    0.0103 C   0  0  0  0  0  0  0  0  0  0  0  0
    0.0021   -0.0041    0.0020 C   0  0  0  0  0  0  0  0  0  0  0  0
    0.0049   -0.6450   -1.2045 C   0  0  0  0  0  0  0  0  0  0  0  0
    0.0238   -2.0506   -1.2166 C   0  0  0  0  0  0  0  0  0  0  0  0
    0.0386   -2.6897    0.0217 C   0  0  0  0  0  0  0  0  0  0  0  0
    0.0587   -4.1306    0.1919 C   0  0  0  0  0  0  0  0  0  0  0  0
    0.0629   -4.8851   -0.9734 C   0  0  0  0  0  0  0  0  0  0  0  0
    0.0481   -4.2293   -2.2187 C   0  0  0  0  0  0  0  0  0  0  0  0
    0.0286   -2.8677   -2.3600 C   0  0  0  0  0  0  0  0  0  0  0  0
    0.0133   -2.2486   -3.7338 C   0  0  0  0  0  0  0  0  0  0  0  0
    1.2644   -2.6802   -4.5016 C   0  0  0  0  0  0  0  0  0  0  0  0
   -1.2338   -2.7129   -4.4887 C   0  0  0  0  0  0  0  0  0  0  0  0
    0.0527   -4.9910   -3.3449 O   0  0  0  0  0  0  0  0  0  0  0  0
    0.0816   -6.2388   -0.9125 O   0  0  0  0  0  0  0  0  0  0  0  0
    0.0680   -4.2871    1.6434 C   0  0  0  0  0  0  0  0  0  0  0  0
    0.0856   -5.3419    2.2496 O   0  0  0  0  0  0  0  0  0  0  0  0
    0.0540   -3.0467    2.1976 O   0  0  0  0  0  0  0  0  0  0  0  0
    0.0361   -2.0732    1.2622 C   0  0  0  0  0  0  0  0  0  0  0  0
    0.0229   -0.6770    1.2364 C   0  0  0  0  0  0  0  0  0  0  0  0
    0.0250    0.0904    2.5021 C   0  0  0  0  0  0  0  0  0  0  0  0
    1.2413    0.4779    3.0916 C   0  0  0  0  0  0  0  0  0  0  0  0
    1.3206    1.1860    4.2572 C   0  0  0  0  0  0  0  0  0  0  0  0
    0.1260    1.5483    4.9038 C   0  0  0  0  0  0  0  0  0  0  0  0
   -1.0633    1.1509    4.2959 C   0  0  0  0  0  0  0  0  0  0  0  0
   -1.1812    0.4382    3.1138 C   0  0  0  0  0  0  0  0  0  0  0  0
   -2.4990    0.2681    2.8740 O   0  0  0  0  0  0  0  0  0  0  0  0
   -3.2708    0.8379    3.8359 C   0  0  0  0  0  0  0  0  0  0  0  0
   -4.4871    0.8377    3.8713 O   0  0  0  0  0  0  0  0  0  0  0  0
   -2.3827    1.4405    4.8259 C   0  0  0  0  0  0  0  0  0  0  0  0
   -2.4219    2.1589    6.0130 C   0  0  0  0  0  0  0  0  0  0  0  0
   -1.2146    2.5547    6.6189 C   0  0  0  0  0  0  0  0  0  0  0  0
    0.0220    2.2728    6.1035 C   0  0  0  0  0  0  0  0  0  0  0  0
    1.2647    2.7364    6.8189 C   0  0  0  0  0  0  0  0  0  0  0  0
    1.2517    4.2625    6.9269 C   0  0  0  0  0  0  0  0  0  0  0  0
    1.3033    2.1262    8.2215 C   0  0  0  0  0  0  0  0  0  0  0  0
   -1.2803    3.2570    7.7812 O   0  0  0  0  0  0  0  0  0  0  0  0
   -3.6100    2.4761    6.5825 O   0  0  0  0  0  0  0  0  0  0  0  0
    2.5243    0.0915    2.4019 C   0  0  0  0  0  0  0  0  0  0  0  0
    1.0042    1.8801    0.0026 H   0  0  0  0  0  0  0  0  0  0  0  0
   -0.5455    1.8639   -0.8728 H   0  0  0  0  0  0  0  0  0  0  0  0
   -0.5286    1.8543    0.9071 H   0  0  0  0  0  0  0  0  0  0  0  0
   -0.0074   -0.0846   -2.1277 H   0  0  0  0  0  0  0  0  0  0  0  0
   -0.0004   -1.1625   -3.6428 H   0  0  0  0  0  0  0  0  0  0  0  0
    1.2782   -3.7663   -4.5927 H   0  0  0  0  0  0  0  0  0  0  0  0
    1.2534   -2.2324   -5.4953 H   0  0  0  0  0  0  0  0  0  0  0  0
    2.1529   -2.3494   -3.9638 H   0  0  0  0  0  0  0  0  0  0  0  0
   -1.2201   -3.7990   -4.5798 H   0  0  0  0  0  0  0  0  0  0  0  0
   -2.1251   -2.4055   -3.9417 H   0  0  0  0  0  0  0  0  0  0  0  0
   -1.2448   -2.2651   -5.4824 H   0  0  0  0  0  0  0  0  0  0  0  0
   -0.8292   -5.2231   -3.6663 H   0  0  0  0  0  0  0  0  0  0  0  0
   -0.7963   -6.6436   -0.8903 H   0  0  0  0  0  0  0  0  0  0  0  0
    2.2789    1.4609    4.6725 H   0  0  0  0  0  0  0  0  0  0  0  0
    2.1453    2.4191    6.2603 H   0  0  0  0  0  0  0  0  0  0  0  0
    0.3712    4.5798    7.4855 H   0  0  0  0  0  0  0  0  0  0  0  0
    2.1506    4.5978    7.4443 H   0  0  0  0  0  0  0  0  0  0  0  0
    1.2242    4.6972    5.9277 H   0  0  0  0  0  0  0  0  0  0  0  0
    2.2021    2.4615    8.7390 H   0  0  0  0  0  0  0  0  0  0  0  0
    0.4227    2.4435    8.7801 H   0  0  0  0  0  0  0  0  0  0  0  0
    1.3125    1.0390    8.1446 H   0  0  0  0  0  0  0  0  0  0  0  0
   -1.2812    2.7047    8.5749 H   0  0  0  0  0  0  0  0  0  0  0  0
   -3.9371    1.8129    7.2054 H   0  0  0  0  0  0  0  0  0  0  0  0
    2.8119    0.8769    1.7029 H   0  0  0  0  0  0  0  0  0  0  0  0
    3.3110   -0.0396    3.1449 H   0  0  0  0  0  0  0  0  0  0  0  0
    2.3780   -0.8423    1.8590 H   0  0  0  0  0  0  0  0  0  0  0  0
  1  2  1  0  0  0  0
  1 39  1  0  0  0  0
  1 40  1  0  0  0  0
  1 41  1  0  0  0  0
  2 19  2  0  0  0  0
  2  3  1  0  0  0  0
  3  4  2  0  0  0  0
  3 42  1  0  0  0  0
  4  9  1  0  0  0  0
  4  5  1  0  0  0  0
  5 18  2  0  0  0  0
  5  6  1  0  0  0  0
  6  7  2  0  0  0  0
  6 15  1  0  0  0  0
  7  8  1  0  0  0  0
  7 14  1  0  0  0  0
  8  9  2  0  0  0  0
  8 13  1  0  0  0  0
  9 10  1  0  0  0  0
 10 11  1  0  0  0  0
 10 12  1  0  0  0  0
 10 43  1  0  0  0  0
 11 44  1  0  0  0  0
 11 45  1  0  0  0  0
 11 46  1  0  0  0  0
 12 47  1  0  0  0  0
 12 48  1  0  0  0  0
 12 49  1  0  0  0  0
 13 50  1  0  0  0  0
 14 51  1  0  0  0  0
 15 16  2  0  0  0  0
 15 17  1  0  0  0  0
 17 18  1  0  0  0  0
 18 19  1  0  0  0  0
 19 20  1  0  0  0  0
 20 25  2  0  0  0  0
 20 21  1  0  0  0  0
 21 22  2  0  0  0  0
 21 38  1  0  0  0  0
 22 23  1  0  0  0  0
 22 52  1  0  0  0  0
 23 32  2  0  0  0  0
 23 24  1  0  0  0  0
 24 29  2  0  0  0  0
 24 25  1  0  0  0  0
 25 26  1  0  0  0  0
 26 27  1  0  0  0  0
 27 28  2  0  0  0  0
 27 29  1  0  0  0  0
 29 30  1  0  0  0  0
 30 31  2  0  0  0  0
 30 37  1  0  0  0  0
 31 32  1  0  0  0  0
 31 36  1  0  0  0  0
 32 33  1  0  0  0  0
 33 34  1  0  0  0  0
 33 35  1  0  0  0  0
 33 53  1  0  0  0  0
 34 54  1  0  0  0  0
 34 55  1  0  0  0  0
 34 56  1  0  0  0  0
 35 57  1  0  0  0  0
 35 58  1  0  0  0  0
 35 59  1  0  0  0  0
 36 60  1  0  0  0  0
 37 61  1  0  0  0  0
 38 62  1  0  0  0  0
 38 63  1  0  0  0  0
 38 64  1  0  0  0  0
M  END
$$$$
CHEMBL69938
  -OEChem-07121202273D

 43 45  0     1  0  0  0  0  0999 V2000
    0.7328    1.4556   -0.5753 C   0  0  0  0  0  0  0  0  0  0  0  0
    0.4987   -0.0441   -0.3829 C   0  0  2  0  0  0  0  0  0  0  0  0
    0.8781   -0.5887   -1.2475 H   0  0  0  0  0  0  0  0  0  0  0  0
   -1.0021   -0.3159   -0.2189 C   0  0  0  0  0  0  0  0  0  0  0  0
   -1.2105   -1.8302   -0.1403 C   0  0  2  0  0  0  0  0  0  0  0  0
   -0.2406   -2.4256    0.8489 C   0  0  0  0  0  0  0  0  0  0  0  0
   -0.4963   -3.6914    1.3519 C   0  0  0  0  0  0  0  0  0  0  0  0
    0.3706   -4.2715    2.2565 C   0  0  0  0  0  0  0  0  0  0  0  0
    1.5062   -3.5845    2.6657 C   0  0  0  0  0  0  0  0  0  0  0  0
    1.7630   -2.3194    2.1661 C   0  0  0  0  0  0  0  0  0  0  0  0
    0.8877   -1.7355    1.2567 C   0  0  0  0  0  0  0  0  0  0  0  0
    1.1693   -0.4880    0.7973 O   0  0  0  0  0  0  0  0  0  0  0  0
    2.3634   -4.1532    3.5541 O   0  0  0  0  0  0  0  0  0  0  0  0
    3.5105   -3.3882    3.9296 C   0  0  0  0  0  0  0  0  0  0  0  0
    4.3382   -4.1740    4.9136 C   0  0  0  0  0  0  0  0  0  0  0  0
    4.0963   -4.0563    6.2695 C   0  0  0  0  0  0  0  0  0  0  0  0
    4.8556   -4.7771    7.1722 C   0  0  0  0  0  0  0  0  0  0  0  0
    5.8566   -5.6159    6.7189 C   0  0  0  0  0  0  0  0  0  0  0  0
    6.0979   -5.7342    5.3629 C   0  0  0  0  0  0  0  0  0  0  0  0
    5.3358   -5.0167    4.4601 C   0  0  0  0  0  0  0  0  0  0  0  0
    0.0413   -5.8571    2.8820 Cl  0  0  0  0  0  0  0  0  0  0  0  0
   -0.9750   -2.4488   -1.5197 C   0  0  0  0  0  0  0  0  0  0  0  0
   -1.9862   -1.9026   -2.4944 C   0  0  0  0  0  0  0  0  0  0  0  0
   -2.8920   -1.1894   -2.0976 O   0  0  0  0  0  0  0  0  0  0  0  0
   -1.8985   -2.1739   -3.6799 O   0  5  0  0  0  0  0  0  0  0  0  0
   -2.5481   -2.1049    0.2811 O   0  0  0  0  0  0  0  0  0  0  0  0
    1.8007    1.6459   -0.6823 H   0  0  0  0  0  0  0  0  0  0  0  0
    0.2121    1.7925   -1.4716 H   0  0  0  0  0  0  0  0  0  0  0  0
    0.3523    1.9968    0.2910 H   0  0  0  0  0  0  0  0  0  0  0  0
   -1.3624    0.1526    0.6970 H   0  0  0  0  0  0  0  0  0  0  0  0
   -1.5439    0.0856   -1.0753 H   0  0  0  0  0  0  0  0  0  0  0  0
   -1.3788   -4.2269    1.0346 H   0  0  0  0  0  0  0  0  0  0  0  0
    2.6458   -1.7842    2.4834 H   0  0  0  0  0  0  0  0  0  0  0  0
    4.1079   -3.1708    3.0442 H   0  0  0  0  0  0  0  0  0  0  0  0
    3.1892   -2.4537    4.3896 H   0  0  0  0  0  0  0  0  0  0  0  0
    3.3143   -3.4010    6.6237 H   0  0  0  0  0  0  0  0  0  0  0  0
    4.6671   -4.6847    8.2316 H   0  0  0  0  0  0  0  0  0  0  0  0
    6.4503   -6.1785    7.4242 H   0  0  0  0  0  0  0  0  0  0  0  0
    6.8802   -6.3892    5.0088 H   0  0  0  0  0  0  0  0  0  0  0  0
    5.5218   -5.1119    3.4005 H   0  0  0  0  0  0  0  0  0  0  0  0
    0.0299   -2.2017   -1.8619 H   0  0  0  0  0  0  0  0  0  0  0  0
   -1.0808   -3.5318   -1.4551 H   0  0  0  0  0  0  0  0  0  0  0  0
   -2.7520   -3.0474    0.3533 H   0  0  0  0  0  0  0  0  0  0  0  0
  1  2  1  0  0  0  0
  1 27  1  0  0  0  0
  1 28  1  0  0  0  0
  1 29  1  0  0  0  0
  2  3  1  0  0  0  0
  2 12  1  0  0  0  0
  2  4  1  0  0  0  0
  4  5  1  0  0  0  0
  4 30  1  0  0  0  0
  4 31  1  0  0  0  0
  5  6  1  0  0  0  0
  5 22  1  0  0  0  0
  5 26  1  0  0  0  0
  6 11  2  0  0  0  0
  6  7  1  0  0  0  0
  7  8  2  0  0  0  0
  7 32  1  0  0  0  0
  8  9  1  0  0  0  0
  8 21  1  0  0  0  0
  9 10  2  0  0  0  0
  9 13  1  0  0  0  0
 10 11  1  0  0  0  0
 10 33  1  0  0  0  0
 11 12  1  0  0  0  0
 13 14  1  0  0  0  0
 14 15  1  0  0  0  0
 14 34  1  0  0  0  0
 14 35  1  0  0  0  0
 15 20  2  0  0  0  0
 15 16  1  0  0  0  0
 16 17  2  0  0  0  0
 16 36  1  0  0  0  0
 17 18  1  0  0  0  0
 17 37  1  0  0  0  0
 18 19  2  0  0  0  0
 18 38  1  0  0  0  0
 19 20  1  0  0  0  0
 19 39  1  0  0  0  0
 20 40  1  0  0  0  0
 22 23  1  0  0  0  0
 22 41  1  0  0  0  0
 22 42  1  0  0  0  0
 23 24  2  0  0  0  0
 23 25  1  0  0  0  0
 26 43  1  0  0  0  0
M  CHG  1  25  -1
M  END
$$$$
CHEMBL522150
  -OEChem-07121202273D

 41 44  0     0  0  0  0  0  0999 V2000
    0.1287    1.2507    1.7159 C   0  0  0  0  0  0  0  0  0  0  0  0
    1.3268    1.9497    1.7412 C   0  0  0  0  0  0  0  0  0  0  0  0
    2.5142    1.3221    1.4306 C   0  0  0  0  0  0  0  0  0  0  0  0
    2.5176   -0.0246    1.0877 C   0  0  0  0  0  0  0  0  0  0  0  0
    1.3047   -0.7308    1.0624 C   0  0  0  0  0  0  0  0  0  0  0  0
    0.1106   -0.0850    1.3786 C   0  0  0  0  0  0  0  0  0  0  0  0
    1.3306   -2.1607    0.6954 C   0  0  0  0  0  0  0  0  0  0  0  0
    0.3078   -2.8242    0.6565 O   0  0  0  0  0  0  0  0  0  0  0  0
    2.5890   -2.7305    0.3903 C   0  0  0  0  0  0  0  0  0  0  0  0
    3.7061   -1.9564    0.4451 C   0  0  0  0  0  0  0  0  0  0  0  0
    3.6687   -0.6576    0.7798 O   0  0  0  0  0  0  0  0  0  0  0  0
    5.0107   -2.5691    0.1231 C   0  0  0  0  0  0  0  0  0  0  0  0
    5.0814   -3.9187   -0.2353 C   0  0  0  0  0  0  0  0  0  0  0  0
    6.2997   -4.4946   -0.5370 C   0  0  0  0  0  0  0  0  0  0  0  0
    7.4570   -3.7443   -0.4874 C   0  0  0  0  0  0  0  0  0  0  0  0
    7.4028   -2.3916   -0.1302 C   0  0  0  0  0  0  0  0  0  0  0  0
    6.1727   -1.8020    0.1704 C   0  0  0  0  0  0  0  0  0  0  0  0
    8.6362   -1.5928   -0.0771 C   0  0  0  0  0  0  0  0  0  0  0  0
    8.6088   -0.3366    0.4317 C   0  0  0  0  0  0  0  0  0  0  0  0
    9.6643    0.6985    0.4443 C   0  0  0  0  0  0  0  0  0  0  0  0
   10.7596    0.5011   -0.0476 O   0  0  0  0  0  0  0  0  0  0  0  0
    9.3569    1.8500    1.0173 N   0  0  0  0  0  0  0  0  0  0  0  0
    8.1417    2.0644    1.5612 C   0  0  0  0  0  0  0  0  0  0  0  0
    7.7283    3.0653    2.1148 O   0  0  0  0  0  0  0  0  0  0  0  0
    7.2837    0.5268    1.2651 S   0  0  0  0  0  0  0  0  0  0  0  0
   10.3596    2.9171    1.0625 C   0  0  0  0  0  0  0  0  0  0  0  0
   10.2333    3.7776   -0.1683 C   0  0  0  0  0  0  0  0  0  0  0  0
    9.3844    3.5230   -1.0056 O   0  0  0  0  0  0  0  0  0  0  0  0
   10.9800    4.7283   -0.3267 O   0  5  0  0  0  0  0  0  0  0  0  0
   -0.7932    1.7546    1.9660 H   0  0  0  0  0  0  0  0  0  0  0  0
    1.3291    2.9966    2.0068 H   0  0  0  0  0  0  0  0  0  0  0  0
    3.4408    1.8765    1.4533 H   0  0  0  0  0  0  0  0  0  0  0  0
   -0.8227   -0.6282    1.3592 H   0  0  0  0  0  0  0  0  0  0  0  0
    2.6623   -3.7726    0.1162 H   0  0  0  0  0  0  0  0  0  0  0  0
    4.1804   -4.5128   -0.2761 H   0  0  0  0  0  0  0  0  0  0  0  0
    6.3472   -5.5377   -0.8127 H   0  0  0  0  0  0  0  0  0  0  0  0
    8.4064   -4.2015   -0.7243 H   0  0  0  0  0  0  0  0  0  0  0  0
    6.1232   -0.7580    0.4423 H   0  0  0  0  0  0  0  0  0  0  0  0
    9.5639   -2.0069   -0.4435 H   0  0  0  0  0  0  0  0  0  0  0  0
   10.2001    3.5281    1.9509 H   0  0  0  0  0  0  0  0  0  0  0  0
   11.3565    2.4777    1.0979 H   0  0  0  0  0  0  0  0  0  0  0  0
  1  6  2  0  0  0  0
  1  2  1  0  0  0  0
  1 30  1  0  0  0  0
  2  3  2  0  0  0  0
  2 31  1  0  0  0  0
  3  4  1  0  0  0  0
  3 32  1  0  0  0  0
  4 11  1  0  0  0  0
  4  5  2  0  0  0  0
  5  6  1  0  0  0  0
  5  7  1  0  0  0  0
  6 33  1  0  0  0  0
  7  8  2  0  0  0  0
  7  9  1  0  0  0  0
  9 10  2  0  0  0  0
  9 34  1  0  0  0  0
 10 11  1  0  0  0  0
 10 12  1  0  0  0  0
 12 17  2  0  0  0  0
 12 13  1  0  0  0  0
 13 14  2  0  0  0  0
 13 35  1  0  0  0  0
 14 15  1  0  0  0  0
 14 36  1  0  0  0  0
 15 16  2  0  0  0  0
 15 37  1  0  0  0  0
 16 17  1  0  0  0  0
 16 18  1  0  0  0  0
 17 38  1  0  0  0  0
 18 19  2  0  0  0  0
 18 39  1  0  0  0  0
 19 25  1  0  0  0  0
 19 20  1  0  0  0  0
 20 21  2  0  0  0  0
 20 22  1  0  0  0  0
 22 23  1  0  0  0  0
 22 26  1  0  0  0  0
 23 24  2  0  0  0  0
 23 25  1  0  0  0  0
 26 27  1  0  0  0  0
 26 40  1  0  0  0  0
 26 41  1  0  0  0  0
 27 28  2  0  0  0  0
 27 29  1  0  0  0  0
M  CHG  1  29  -1
M  END
$$$$
CHEMBL69537
  -OEChem-07121202273D

 43 47  0     0  0  0  0  0  0999 V2000
   -0.0164    1.3552    0.0095 C   0  0  0  0  0  0  0  0  0  0  0  0
    1.1593    2.1029    0.0023 C   0  0  0  0  0  0  0  0  0  0  0  0
    2.3822    1.5094   -0.0125 C   0  0  0  0  0  0  0  0  0  0  0  0
    2.4721    0.1037   -0.0209 C   0  0  0  0  0  0  0  0  0  0  0  0
    3.7152   -0.5417   -0.0357 C   0  0  0  0  0  0  0  0  0  0  0  0
    3.7621   -1.9225   -0.0431 C   0  0  0  0  0  0  0  0  0  0  0  0
    2.5261   -2.7112   -0.0355 C   0  0  0  0  0  0  0  0  0  0  0  0
    1.2940   -2.0812   -0.0195 C   0  0  0  0  0  0  0  0  0  0  0  0
    1.2368   -0.6822   -0.0133 C   0  0  0  0  0  0  0  0  0  0  0  0
    0.0021   -0.0041    0.0020 C   0  0  0  0  0  0  0  0  0  0  0  0
    2.6443   -4.1731   -0.0451 C   0  0  0  0  0  0  0  0  0  0  0  0
    3.8184   -4.7262   -0.0597 N   0  0  0  0  0  0  0  0  0  0  0  0
    5.0090   -4.0034   -0.0672 N   0  0  0  0  0  0  0  0  0  0  0  0
    5.0386   -2.6553   -0.0597 C   0  0  0  0  0  0  0  0  0  0  0  0
    6.0989   -2.0567   -0.0667 O   0  0  0  0  0  0  0  0  0  0  0  0
    6.2776   -4.7359   -0.0832 C   0  0  0  0  0  0  0  0  0  0  0  0
    6.7262   -4.9946    1.3320 C   0  0  0  0  0  0  0  0  0  0  0  0
    6.4543   -6.0246    2.0791 N   0  0  0  0  0  0  0  0  0  0  0  0
    6.9198   -6.1410    3.3398 C   0  0  0  0  0  0  0  0  0  0  0  0
    6.7297   -7.1721    4.2834 C   0  0  0  0  0  0  0  0  0  0  0  0
    7.2952   -7.0925    5.5190 C   0  0  0  0  0  0  0  0  0  0  0  0
    8.0726   -6.0056    5.8945 C   0  0  0  0  0  0  0  0  0  0  0  0
    8.2821   -4.9755    4.9968 C   0  0  0  0  0  0  0  0  0  0  0  0
    7.7156   -5.0464    3.7472 C   0  0  0  0  0  0  0  0  0  0  0  0
    7.6982   -4.0201    2.3006 S   0  0  0  0  0  0  0  0  0  0  0  0
    1.4054   -5.0311   -0.0374 C   0  0  0  0  0  0  0  0  0  0  0  0
    1.8012   -6.4851   -0.0497 C   0  0  0  0  0  0  0  0  0  0  0  0
    2.9801   -6.7959   -0.0634 O   0  0  0  0  0  0  0  0  0  0  0  0
    0.9426   -7.3507   -0.0459 O   0  5  0  0  0  0  0  0  0  0  0  0
   -0.9664    1.8685    0.0259 H   0  0  0  0  0  0  0  0  0  0  0  0
    1.0975    3.1811    0.0083 H   0  0  0  0  0  0  0  0  0  0  0  0
    3.2788    2.1115   -0.0182 H   0  0  0  0  0  0  0  0  0  0  0  0
    4.6285    0.0346   -0.0417 H   0  0  0  0  0  0  0  0  0  0  0  0
    0.3845   -2.6636   -0.0139 H   0  0  0  0  0  0  0  0  0  0  0  0
   -0.9236   -0.5603    0.0082 H   0  0  0  0  0  0  0  0  0  0  0  0
    6.1424   -5.6855   -0.6009 H   0  0  0  0  0  0  0  0  0  0  0  0
    7.0323   -4.1440   -0.6011 H   0  0  0  0  0  0  0  0  0  0  0  0
    6.1299   -8.0318    4.0234 H   0  0  0  0  0  0  0  0  0  0  0  0
    7.1349   -7.8944    6.2245 H   0  0  0  0  0  0  0  0  0  0  0  0
    8.5103   -5.9648    6.8809 H   0  0  0  0  0  0  0  0  0  0  0  0
    8.8849   -4.1237    5.2749 H   0  0  0  0  0  0  0  0  0  0  0  0
    0.8232   -4.8206    0.8598 H   0  0  0  0  0  0  0  0  0  0  0  0
    0.8052   -4.8104   -0.9201 H   0  0  0  0  0  0  0  0  0  0  0  0
  1 10  2  0  0  0  0
  1  2  1  0  0  0  0
  1 30  1  0  0  0  0
  2  3  2  0  0  0  0
  2 31  1  0  0  0  0
  3  4  1  0  0  0  0
  3 32  1  0  0  0  0
  4  9  2  0  0  0  0
  4  5  1  0  0  0  0
  5  6  2  0  0  0  0
  5 33  1  0  0  0  0
  6 14  1  0  0  0  0
  6  7  1  0  0  0  0
  7  8  2  0  0  0  0
  7 11  1  0  0  0  0
  8  9  1  0  0  0  0
  8 34  1  0  0  0  0
  9 10  1  0  0  0  0
 10 35  1  0  0  0  0
 11 12  2  0  0  0  0
 11 26  1  0  0  0  0
 12 13  1  0  0  0  0
 13 14  1  0  0  0  0
 13 16  1  0  0  0  0
 14 15  2  0  0  0  0
 16 17  1  0  0  0  0
 16 36  1  0  0  0  0
 16 37  1  0  0  0  0
 17 25  1  0  0  0  0
 17 18  2  0  0  0  0
 18 19  1  0  0  0  0
 19 24  2  0  0  0  0
 19 20  1  0  0  0  0
 20 21  2  0  0  0  0
 20 38  1  0  0  0  0
 21 22  1  0  0  0  0
 21 39  1  0  0  0  0
 22 23  2  0  0  0  0
 22 40  1  0  0  0  0
 23 24  1  0  0  0  0
 23 41  1  0  0  0  0
 24 25  1  0  0  0  0
 26 27  1  0  0  0  0
 26 42  1  0  0  0  0
 26 43  1  0  0  0  0
 27 28  2  0  0  0  0
 27 29  1  0  0  0  0
M  CHG  1  29  -1
M  END
$$$$
CHEMBL494695
  -OEChem-07121202273D

 36 39  0     0  0  0  0  0  0999 V2000
   -0.0989    1.2084    0.5544 C   0  0  0  0  0  0  0  0  0  0  0  0
    1.0791    1.9341    0.6564 C   0  0  0  0  0  0  0  0  0  0  0  0
    2.3027    1.3032    0.5834 C   0  0  0  0  0  0  0  0  0  0  0  0
    2.3633   -0.0738    0.4064 C   0  0  0  0  0  0  0  0  0  0  0  0
    1.1707   -0.8071    0.3038 C   0  0  0  0  0  0  0  0  0  0  0  0
   -0.0604   -0.1576    0.3787 C   0  0  0  0  0  0  0  0  0  0  0  0
    1.2572   -2.2690    0.1160 C   0  0  0  0  0  0  0  0  0  0  0  0
    0.2542   -2.9566    0.0203 O   0  0  0  0  0  0  0  0  0  0  0  0
    2.5498   -2.8406    0.0510 C   0  0  0  0  0  0  0  0  0  0  0  0
    3.6437   -2.0384    0.1618 C   0  0  0  0  0  0  0  0  0  0  0  0
    3.5507   -0.7104    0.3320 O   0  0  0  0  0  0  0  0  0  0  0  0
    4.9832   -2.6523    0.0922 C   0  0  0  0  0  0  0  0  0  0  0  0
    5.1104   -4.0333   -0.0904 C   0  0  0  0  0  0  0  0  0  0  0  0
    6.3498   -4.6026   -0.1546 C   0  0  0  0  0  0  0  0  0  0  0  0
    7.4942   -3.8031   -0.0380 C   0  0  0  0  0  0  0  0  0  0  0  0
    7.3656   -2.4201    0.1444 C   0  0  0  0  0  0  0  0  0  0  0  0
    6.1252   -1.8522    0.2030 C   0  0  0  0  0  0  0  0  0  0  0  0
    8.8279   -4.4144   -0.1063 C   0  0  0  0  0  0  0  0  0  0  0  0
    8.9763   -5.6632   -0.6150 C   0  0  0  0  0  0  0  0  0  0  0  0
   10.1715   -6.5353   -0.6414 C   0  0  0  0  0  0  0  0  0  0  0  0
   11.2329   -6.1808   -0.1640 O   0  0  0  0  0  0  0  0  0  0  0  0
   10.0259   -7.7202   -1.2103 N   0  0  0  0  0  0  0  0  0  0  0  0
    8.8476   -8.1089   -1.7381 C   0  0  0  0  0  0  0  0  0  0  0  0
    8.5759   -9.1603   -2.2857 O   0  0  0  0  0  0  0  0  0  0  0  0
    7.7798   -6.7112   -1.4310 S   0  0  0  0  0  0  0  0  0  0  0  0
   -1.0501    1.7158    0.6175 H   0  0  0  0  0  0  0  0  0  0  0  0
    1.0372    3.0045    0.7940 H   0  0  0  0  0  0  0  0  0  0  0  0
    3.2132    1.8785    0.6633 H   0  0  0  0  0  0  0  0  0  0  0  0
   -0.9781   -0.7215    0.2999 H   0  0  0  0  0  0  0  0  0  0  0  0
    2.6676   -3.9055   -0.0852 H   0  0  0  0  0  0  0  0  0  0  0  0
    4.2280   -4.6494   -0.1803 H   0  0  0  0  0  0  0  0  0  0  0  0
    6.4478   -5.6690   -0.2949 H   0  0  0  0  0  0  0  0  0  0  0  0
    8.2471   -1.8027    0.2345 H   0  0  0  0  0  0  0  0  0  0  0  0
    6.0259   -0.7855    0.3396 H   0  0  0  0  0  0  0  0  0  0  0  0
    9.6904   -3.8698    0.2484 H   0  0  0  0  0  0  0  0  0  0  0  0
   10.7844   -8.3235   -1.2492 H   0  0  0  0  0  0  0  0  0  0  0  0
  1  6  2  0  0  0  0
  1  2  1  0  0  0  0
  1 26  1  0  0  0  0
  2  3  2  0  0  0  0
  2 27  1  0  0  0  0
  3  4  1  0  0  0  0
  3 28  1  0  0  0  0
  4 11  1  0  0  0  0
  4  5  2  0  0  0  0
  5  6  1  0  0  0  0
  5  7  1  0  0  0  0
  6 29  1  0  0  0  0
  7  8  2  0  0  0  0
  7  9  1  0  0  0  0
  9 10  2  0  0  0  0
  9 30  1  0  0  0  0
 10 11  1  0  0  0  0
 10 12  1  0  0  0  0
 12 17  2  0  0  0  0
 12 13  1  0  0  0  0
 13 14  2  0  0  0  0
 13 31  1  0  0  0  0
 14 15  1  0  0  0  0
 14 32  1  0  0  0  0
 15 16  2  0  0  0  0
 15 18  1  0  0  0  0
 16 17  1  0  0  0  0
 16 33  1  0  0  0  0
 17 34  1  0  0  0  0
 18 19  2  0  0  0  0
 18 35  1  0  0  0  0
 19 25  1  0  0  0  0
 19 20  1  0  0  0  0
 20 21  2  0  0  0  0
 20 22  1  0  0  0  0
 22 23  1  0  0  0  0
 22 36  1  0  0  0  0
 23 24  2  0  0  0  0
 23 25  1  0  0  0  0
M  END
$$$$
CHEMBL140042
  -OEChem-07121202273D

 41 44  0     0  0  0  0  0  0999 V2000
   -0.0167    1.3793    0.0096 C   0  0  0  0  0  0  0  0  0  0  0  0
    1.1683    2.0934    0.0021 C   0  0  0  0  0  0  0  0  0  0  0  0
    2.3774    1.4292   -0.0134 C   0  0  0  0  0  0  0  0  0  0  0  0
    2.4034    0.0337   -0.0211 C   0  0  0  0  0  0  0  0  0  0  0  0
    1.2043   -0.6806   -0.0130 C   0  0  0  0  0  0  0  0  0  0  0  0
    0.0021   -0.0041    0.0020 C   0  0  0  0  0  0  0  0  0  0  0  0
    3.6953   -0.6846   -0.0382 C   0  0  0  0  0  0  0  0  0  0  0  0
    3.8726   -2.0306   -0.0527 C   0  0  0  0  0  0  0  0  0  0  0  0
    5.1935   -2.2637   -0.0661 N   0  0  0  0  0  0  0  0  0  0  0  0
    5.8238   -1.1226   -0.0605 C   0  0  0  0  0  0  0  0  0  0  0  0
    4.9263   -0.1277   -0.0484 O   0  0  0  0  0  0  0  0  0  0  0  0
    7.3208   -0.9502   -0.0710 C   0  0  0  0  0  0  0  0  0  0  0  0
    7.7946   -0.8806   -1.4556 N   0  0  0  0  0  0  0  0  0  0  0  0
    7.8775    0.3221   -2.0617 C   0  0  0  0  0  0  0  0  0  0  0  0
    7.5634    1.3388   -1.4689 O   0  0  0  0  0  0  0  0  0  0  0  0
    8.3538    0.3821   -3.4491 C   0  0  0  0  0  0  0  0  0  0  0  0
    8.4665    1.5876   -4.1405 C   0  0  0  0  0  0  0  0  0  0  0  0
    8.9202    1.5811   -5.4413 C   0  0  0  0  0  0  0  0  0  0  0  0
    9.2640    0.3894   -6.0664 C   0  0  0  0  0  0  0  0  0  0  0  0
    9.1615   -0.8041   -5.4080 C   0  0  0  0  0  0  0  0  0  0  0  0
    8.7052   -0.8286   -4.0887 C   0  0  0  0  0  0  0  0  0  0  0  0
    8.5774   -2.0784   -3.3390 C   0  0  0  0  0  0  0  0  0  0  0  0
    8.1536   -2.0590   -2.1104 N   0  0  0  0  0  0  0  0  0  0  0  0
    8.9431   -3.3877   -3.9892 C   0  0  0  0  0  0  0  0  0  0  0  0
    8.7227   -4.5130   -3.0114 C   0  0  0  0  0  0  0  0  0  0  0  0
    8.3072   -4.2739   -1.8904 O   0  0  0  0  0  0  0  0  0  0  0  0
    8.9599   -5.6626   -3.3413 O   0  5  0  0  0  0  0  0  0  0  0  0
   -0.9605    1.9041    0.0260 H   0  0  0  0  0  0  0  0  0  0  0  0
    1.1468    3.1732    0.0081 H   0  0  0  0  0  0  0  0  0  0  0  0
    3.3017    1.9878   -0.0199 H   0  0  0  0  0  0  0  0  0  0  0  0
    1.2176   -1.7605   -0.0192 H   0  0  0  0  0  0  0  0  0  0  0  0
   -0.9265   -0.5556    0.0082 H   0  0  0  0  0  0  0  0  0  0  0  0
    3.0924   -2.7774   -0.0533 H   0  0  0  0  0  0  0  0  0  0  0  0
    7.5842   -0.0296    0.4498 H   0  0  0  0  0  0  0  0  0  0  0  0
    7.7878   -1.7978    0.4306 H   0  0  0  0  0  0  0  0  0  0  0  0
    8.2002    2.5179   -3.6608 H   0  0  0  0  0  0  0  0  0  0  0  0
    9.0091    2.5125   -5.9808 H   0  0  0  0  0  0  0  0  0  0  0  0
    9.6169    0.4059   -7.0870 H   0  0  0  0  0  0  0  0  0  0  0  0
    9.4322   -1.7235   -5.9058 H   0  0  0  0  0  0  0  0  0  0  0  0
    8.3187   -3.5434   -4.8690 H   0  0  0  0  0  0  0  0  0  0  0  0
    9.9914   -3.3653   -4.2871 H   0  0  0  0  0  0  0  0  0  0  0  0
  1  6  2  0  0  0  0
  1  2  1  0  0  0  0
  1 28  1  0  0  0  0
  2  3  2  0  0  0  0
  2 29  1  0  0  0  0
  3  4  1  0  0  0  0
  3 30  1  0  0  0  0
  4  5  2  0  0  0  0
  4  7  1  0  0  0  0
  5  6  1  0  0  0  0
  5 31  1  0  0  0  0
  6 32  1  0  0  0  0
  7 11  1  0  0  0  0
  7  8  2  0  0  0  0
  8  9  1  0  0  0  0
  8 33  1  0  0  0  0
  9 10  2  0  0  0  0
 10 11  1  0  0  0  0
 10 12  1  0  0  0  0
 12 13  1  0  0  0  0
 12 34  1  0  0  0  0
 12 35  1  0  0  0  0
 13 23  1  0  0  0  0
 13 14  1  0  0  0  0
 14 15  2  0  0  0  0
 14 16  1  0  0  0  0
 16 21  2  0  0  0  0
 16 17  1  0  0  0  0
 17 18  2  0  0  0  0
 17 36  1  0  0  0  0
 18 19  1  0  0  0  0
 18 37  1  0  0  0  0
 19 20  2  0  0  0  0
 19 38  1  0  0  0  0
 20 21  1  0  0  0  0
 20 39  1  0  0  0  0
 21 22  1  0  0  0  0
 22 23  2  0  0  0  0
 22 24  1  0  0  0  0
 24 25  1  0  0  0  0
 24 40  1  0  0  0  0
 24 41  1  0  0  0  0
 25 26  2  0  0  0  0
 25 27  1  0  0  0  0
M  CHG  1  27  -1
M  END
$$$$
CHEMBL142001
  -OEChem-07121202273D

 32 34  0     0  0  0  0  0  0999 V2000
   -0.1105    1.3113    0.0243 C   0  0  0  0  0  0  0  0  0  0  0  0
    1.0569    2.0601    0.1613 C   0  0  0  0  0  0  0  0  0  0  0  0
    2.2746    1.4547    0.2303 C   0  0  0  0  0  0  0  0  0  0  0  0
    2.3614    0.0545    0.1628 C   0  0  0  0  0  0  0  0  0  0  0  0
    3.6063   -0.5984    0.2320 C   0  0  0  0  0  0  0  0  0  0  0  0
    3.6687   -1.9527    0.1653 C   0  0  0  0  0  0  0  0  0  0  0  0
    2.4954   -2.7235    0.0265 C   0  0  0  0  0  0  0  0  0  0  0  0
    1.2531   -2.1063   -0.0444 C   0  0  0  0  0  0  0  0  0  0  0  0
    1.1735   -0.7082    0.0232 C   0  0  0  0  0  0  0  0  0  0  0  0
   -0.0667   -0.0471   -0.0447 C   0  0  0  0  0  0  0  0  0  0  0  0
    2.5880   -4.1877   -0.0440 C   0  0  0  0  0  0  0  0  0  0  0  0
    1.5500   -4.9102   -0.5351 C   0  0  0  0  0  0  0  0  0  0  0  0
    1.3447   -6.3736   -0.5510 C   0  0  0  0  0  0  0  0  0  0  0  0
    2.1649   -7.1395   -0.0803 O   0  0  0  0  0  0  0  0  0  0  0  0
    0.2241   -6.8081   -1.1024 N   0  0  0  0  0  0  0  0  0  0  0  0
   -0.6823   -5.9557   -1.6223 C   0  0  0  0  0  0  0  0  0  0  0  0
   -1.7447   -6.2154   -2.1545 O   0  0  0  0  0  0  0  0  0  0  0  0
    0.0508   -4.3534   -1.3338 S   0  0  0  0  0  0  0  0  0  0  0  0
   -0.0385   -8.2486   -1.1498 C   0  0  0  0  0  0  0  0  0  0  0  0
   -0.7789   -8.6655    0.0948 C   0  0  0  0  0  0  0  0  0  0  0  0
   -1.0610   -7.8363    0.9429 O   0  0  0  0  0  0  0  0  0  0  0  0
   -1.0957   -9.8321    0.2537 O   0  5  0  0  0  0  0  0  0  0  0  0
    5.2107   -2.7457    0.2513 Cl  0  0  0  0  0  0  0  0  0  0  0  0
   -1.0640    1.8162   -0.0235 H   0  0  0  0  0  0  0  0  0  0  0  0
    0.9948    3.1371    0.2133 H   0  0  0  0  0  0  0  0  0  0  0  0
    3.1702    2.0489    0.3361 H   0  0  0  0  0  0  0  0  0  0  0  0
    4.5130   -0.0212    0.3380 H   0  0  0  0  0  0  0  0  0  0  0  0
    0.3562   -2.6983   -0.1510 H   0  0  0  0  0  0  0  0  0  0  0  0
   -0.9793   -0.6149   -0.1505 H   0  0  0  0  0  0  0  0  0  0  0  0
    3.4824   -4.6891    0.2950 H   0  0  0  0  0  0  0  0  0  0  0  0
   -0.6436   -8.4790   -2.0267 H   0  0  0  0  0  0  0  0  0  0  0  0
    0.9065   -8.7885   -1.2084 H   0  0  0  0  0  0  0  0  0  0  0  0
  1 10  2  0  0  0  0
  1  2  1  0  0  0  0
  1 24  1  0  0  0  0
  2  3  2  0  0  0  0
  2 25  1  0  0  0  0
  3  4  1  0  0  0  0
  3 26  1  0  0  0  0
  4  9  2  0  0  0  0
  4  5  1  0  0  0  0
  5  6  2  0  0  0  0
  5 27  1  0  0  0  0
  6  7  1  0  0  0  0
  6 23  1  0  0  0  0
  7  8  2  0  0  0  0
  7 11  1  0  0  0  0
  8  9  1  0  0  0  0
  8 28  1  0  0  0  0
  9 10  1  0  0  0  0
 10 29  1  0  0  0  0
 11 12  2  0  0  0  0
 11 30  1  0  0  0  0
 12 18  1  0  0  0  0
 12 13  1  0  0  0  0
 13 14  2  0  0  0  0
 13 15  1  0  0  0  0
 15 16  1  0  0  0  0
 15 19  1  0  0  0  0
 16 17  2  0  0  0  0
 16 18  1  0  0  0  0
 19 20  1  0  0  0  0
 19 31  1  0  0  0  0
 19 32  1  0  0  0  0
 20 21  2  0  0  0  0
 20 22  1  0  0  0  0
M  CHG  1  22  -1
M  END
$$$$
CHEMBL281620
  -OEChem-07121202273D

 37 40  0     1  0  0  0  0  0999 V2000
   -0.0167    1.3782    0.0096 C   0  0  0  0  0  0  0  0  0  0  0  0
    1.1703    2.0860    0.0021 C   0  0  0  0  0  0  0  0  0  0  0  0
    2.3786    1.4101   -0.0131 C   0  0  0  0  0  0  0  0  0  0  0  0
    2.3962    0.0256   -0.0207 C   0  0  0  0  0  0  0  0  0  0  0  0
    1.2079   -0.6800   -0.0132 C   0  0  0  0  0  0  0  0  0  0  0  0
    0.0021   -0.0041    0.0020 C   0  0  0  0  0  0  0  0  0  0  0  0
   -1.2930   -0.7747    0.0103 C   0  0  0  0  0  0  0  0  0  0  0  0
   -1.7258   -1.0170   -1.3682 N   0  0  3  0  0  0  0  0  0  0  0  0
   -2.5848   -0.1201   -2.1513 C   0  0  0  0  0  0  0  0  0  0  0  0
   -2.7420   -0.8129   -3.5044 C   0  0  2  0  0  0  0  0  0  0  0  0
   -1.9436   -2.0827   -3.4012 C   0  0  0  0  0  0  0  0  0  0  0  0
   -1.3768   -2.1339   -2.1343 C   0  0  0  0  0  0  0  0  0  0  0  0
   -0.5781   -3.2256   -1.7922 C   0  0  0  0  0  0  0  0  0  0  0  0
   -0.3520   -4.2367   -2.7019 C   0  0  0  0  0  0  0  0  0  0  0  0
   -0.9169   -4.1756   -3.9643 C   0  0  0  0  0  0  0  0  0  0  0  0
   -1.7174   -3.1000   -4.3083 C   0  0  0  0  0  0  0  0  0  0  0  0
   -0.6942   -5.1667   -4.8549 F   0  0  0  0  0  0  0  0  0  0  0  0
   -2.2591    0.0596   -4.6334 C   0  0  0  0  0  0  0  0  0  0  0  0
   -1.1478    0.5201   -4.7842 O   0  0  0  0  0  0  0  0  0  0  0  0
   -3.3295    0.2192   -5.4418 N   0  0  0  0  0  0  0  0  0  0  0  0
   -4.4027   -0.4303   -4.9722 C   0  0  0  0  0  0  0  0  0  0  0  0
   -5.4852   -0.4359   -5.5249 O   0  0  0  0  0  0  0  0  0  0  0  0
   -4.1469   -1.0769   -3.8169 N   0  0  0  0  0  0  0  0  0  0  0  0
    3.5396    2.1009   -0.0209 F   0  0  0  0  0  0  0  0  0  0  0  0
   -0.9592    1.9052    0.0260 H   0  0  0  0  0  0  0  0  0  0  0  0
    1.1554    3.1659    0.0077 H   0  0  0  0  0  0  0  0  0  0  0  0
    3.3381   -0.5027   -0.0329 H   0  0  0  0  0  0  0  0  0  0  0  0
    1.2213   -1.7599   -0.0195 H   0  0  0  0  0  0  0  0  0  0  0  0
   -1.1453   -1.7280    0.5176 H   0  0  0  0  0  0  0  0  0  0  0  0
   -2.0553   -0.1984    0.5345 H   0  0  0  0  0  0  0  0  0  0  0  0
   -3.5552   -0.0065   -1.6682 H   0  0  0  0  0  0  0  0  0  0  0  0
   -2.1059    0.8511   -2.2757 H   0  0  0  0  0  0  0  0  0  0  0  0
   -0.1346   -3.2791   -0.8089 H   0  0  0  0  0  0  0  0  0  0  0  0
    0.2677   -5.0781   -2.4292 H   0  0  0  0  0  0  0  0  0  0  0  0
   -2.1580   -3.0506   -5.2932 H   0  0  0  0  0  0  0  0  0  0  0  0
   -3.3220    0.7397   -6.2604 H   0  0  0  0  0  0  0  0  0  0  0  0
   -4.7690   -1.6101   -3.2976 H   0  0  0  0  0  0  0  0  0  0  0  0
  1  6  2  0  0  0  0
  1  2  1  0  0  0  0
  1 25  1  0  0  0  0
  2  3  2  0  0  0  0
  2 26  1  0  0  0  0
  3  4  1  0  0  0  0
  3 24  1  0  0  0  0
  4  5  2  0  0  0  0
  4 27  1  0  0  0  0
  5  6  1  0  0  0  0
  5 28  1  0  0  0  0
  6  7  1  0  0  0  0
  7  8  1  0  0  0  0
  7 29  1  0  0  0  0
  7 30  1  0  0  0  0
  8 12  1  0  0  0  0
  8  9  1  0  0  0  0
  9 10  1  0  0  0  0
  9 31  1  0  0  0  0
  9 32  1  0  0  0  0
 10 23  1  0  0  0  0
 10 11  1  0  0  0  0
 10 18  1  0  0  0  0
 11 16  2  0  0  0  0
 11 12  1  0  0  0  0
 12 13  2  0  0  0  0
 13 14  1  0  0  0  0
 13 33  1  0  0  0  0
 14 15  2  0  0  0  0
 14 34  1  0  0  0  0
 15 16  1  0  0  0  0
 15 17  1  0  0  0  0
 16 35  1  0  0  0  0
 18 19  2  0  0  0  0
 18 20  1  0  0  0  0
 20 21  1  0  0  0  0
 20 36  1  0  0  0  0
 21 22  2  0  0  0  0
 21 23  1  0  0  0  0
 23 37  1  0  0  0  0
M  END
$$$$
CHEMBL281620
  -OEChem-07121202273D

 36 39  0     1  0  0  0  0  0999 V2000
   -0.0167    1.3782    0.0096 C   0  0  0  0  0  0  0  0  0  0  0  0
    1.1703    2.0860    0.0021 C   0  0  0  0  0  0  0  0  0  0  0  0
    2.3786    1.4101   -0.0131 C   0  0  0  0  0  0  0  0  0  0  0  0
    2.3962    0.0256   -0.0207 C   0  0  0  0  0  0  0  0  0  0  0  0
    1.2079   -0.6800   -0.0132 C   0  0  0  0  0  0  0  0  0  0  0  0
    0.0021   -0.0041    0.0020 C   0  0  0  0  0  0  0  0  0  0  0  0
   -1.2930   -0.7747    0.0103 C   0  0  0  0  0  0  0  0  0  0  0  0
   -1.7258   -1.0170   -1.3682 N   0  0  3  0  0  0  0  0  0  0  0  0
   -2.5848   -0.1200   -2.1514 C   0  0  0  0  0  0  0  0  0  0  0  0
   -2.7422   -0.8133   -3.5039 C   0  0  2  0  0  0  0  0  0  0  0  0
   -1.9438   -2.0828   -3.4013 C   0  0  0  0  0  0  0  0  0  0  0  0
   -1.3768   -2.1339   -2.1343 C   0  0  0  0  0  0  0  0  0  0  0  0
   -0.5780   -3.2255   -1.7923 C   0  0  0  0  0  0  0  0  0  0  0  0
   -0.3513   -4.2363   -2.7022 C   0  0  0  0  0  0  0  0  0  0  0  0
   -0.9166   -4.1754   -3.9645 C   0  0  0  0  0  0  0  0  0  0  0  0
   -1.7177   -3.1003   -4.3083 C   0  0  0  0  0  0  0  0  0  0  0  0
   -0.6933   -5.1662   -4.8554 F   0  0  0  0  0  0  0  0  0  0  0  0
   -2.2646    0.0587   -4.6348 C   0  0  0  0  0  0  0  0  0  0  0  0
   -1.0333    0.5679   -4.8014 O   0  5  0  0  0  0  0  0  0  0  0  0
   -3.2981    0.2170   -5.4219 N   0  0  0  0  0  0  0  0  0  0  0  0
   -4.3865   -0.4241   -4.9734 C   0  0  0  0  0  0  0  0  0  0  0  0
   -5.4623   -0.4184   -5.5423 O   0  0  0  0  0  0  0  0  0  0  0  0
   -4.1481   -1.0777   -3.8160 N   0  0  0  0  0  0  0  0  0  0  0  0
    3.5396    2.1009   -0.0209 F   0  0  0  0  0  0  0  0  0  0  0  0
   -0.9592    1.9052    0.0260 H   0  0  0  0  0  0  0  0  0  0  0  0
    1.1554    3.1659    0.0077 H   0  0  0  0  0  0  0  0  0  0  0  0
    3.3381   -0.5027   -0.0329 H   0  0  0  0  0  0  0  0  0  0  0  0
    1.2213   -1.7599   -0.0195 H   0  0  0  0  0  0  0  0  0  0  0  0
   -1.1453   -1.7280    0.5176 H   0  0  0  0  0  0  0  0  0  0  0  0
   -2.0553   -0.1984    0.5345 H   0  0  0  0  0  0  0  0  0  0  0  0
   -3.5552   -0.0062   -1.6681 H   0  0  0  0  0  0  0  0  0  0  0  0
   -2.1058    0.8511   -2.2761 H   0  0  0  0  0  0  0  0  0  0  0  0
   -0.1343   -3.2789   -0.8091 H   0  0  0  0  0  0  0  0  0  0  0  0
    0.2684   -5.0777   -2.4295 H   0  0  0  0  0  0  0  0  0  0  0  0
   -2.1583   -3.0508   -5.2931 H   0  0  0  0  0  0  0  0  0  0  0  0
   -4.7748   -1.6098   -3.3012 H   0  0  0  0  0  0  0  0  0  0  0  0
  1  6  2  0  0  0  0
  1  2  1  0  0  0  0
  1 25  1  0  0  0  0
  2  3  2  0  0  0  0
  2 26  1  0  0  0  0
  3  4  1  0  0  0  0
  3 24  1  0  0  0  0
  4  5  2  0  0  0  0
  4 27  1  0  0  0  0
  5  6  1  0  0  0  0
  5 28  1  0  0  0  0
  6  7  1  0  0  0  0
  7  8  1  0  0  0  0
  7 29  1  0  0  0  0
  7 30  1  0  0  0  0
  8 12  1  0  0  0  0
  8  9  1  0  0  0  0
  9 10  1  0  0  0  0
  9 31  1  0  0  0  0
  9 32  1  0  0  0  0
 10 23  1  0  0  0  0
 10 11  1  0  0  0  0
 10 18  1  0  0  0  0
 11 16  2  0  0  0  0
 11 12  1  0  0  0  0
 12 13  2  0  0  0  0
 13 14  1  0  0  0  0
 13 33  1  0  0  0  0
 14 15  2  0  0  0  0
 14 34  1  0  0  0  0
 15 16  1  0  0  0  0
 15 17  1  0  0  0  0
 16 35  1  0  0  0  0
 18 19  1  0  0  0  0
 18 20  2  0  0  0  0
 20 21  1  0  0  0  0
 21 22  2  0  0  0  0
 21 23  1  0  0  0  0
 23 36  1  0  0  0  0
M  CHG  1  19  -1
M  END
$$$$
CHEMBL281620
  -OEChem-07121202273D

 37 40  0     1  0  0  0  0  0999 V2000
   -0.0167    1.3782    0.0096 C   0  0  0  0  0  0  0  0  0  0  0  0
    1.1703    2.0860    0.0021 C   0  0  0  0  0  0  0  0  0  0  0  0
    2.3786    1.4101   -0.0131 C   0  0  0  0  0  0  0  0  0  0  0  0
    2.3962    0.0256   -0.0207 C   0  0  0  0  0  0  0  0  0  0  0  0
    1.2079   -0.6800   -0.0132 C   0  0  0  0  0  0  0  0  0  0  0  0
    0.0021   -0.0041    0.0020 C   0  0  0  0  0  0  0  0  0  0  0  0
   -1.2930   -0.7747    0.0103 C   0  0  0  0  0  0  0  0  0  0  0  0
   -1.7258   -1.0170   -1.3682 N   0  0  3  0  0  0  0  0  0  0  0  0
   -2.5848   -0.1201   -2.1513 C   0  0  0  0  0  0  0  0  0  0  0  0
   -2.7379   -0.8106   -3.5061 C   0  0  1  0  0  0  0  0  0  0  0  0
   -1.9424   -2.0820   -3.4017 C   0  0  0  0  0  0  0  0  0  0  0  0
   -1.3768   -2.1339   -2.1343 C   0  0  0  0  0  0  0  0  0  0  0  0
   -0.5791   -3.2262   -1.7917 C   0  0  0  0  0  0  0  0  0  0  0  0
   -0.3539   -4.2378   -2.7011 C   0  0  0  0  0  0  0  0  0  0  0  0
   -0.9192   -4.1770   -3.9633 C   0  0  0  0  0  0  0  0  0  0  0  0
   -1.7183   -3.1006   -4.3080 C   0  0  0  0  0  0  0  0  0  0  0  0
   -0.6981   -5.1691   -4.8533 F   0  0  0  0  0  0  0  0  0  0  0  0
   -4.1839   -1.0820   -3.8296 C   0  0  0  0  0  0  0  0  0  0  0  0
   -4.9694   -1.7462   -3.1882 O   0  0  0  0  0  0  0  0  0  0  0  0
   -4.4180   -0.4264   -4.9873 N   0  0  0  0  0  0  0  0  0  0  0  0
   -3.3230    0.2101   -5.4231 C   0  0  0  0  0  0  0  0  0  0  0  0
   -3.2849    0.8687   -6.4439 O   0  0  0  0  0  0  0  0  0  0  0  0
   -2.2675    0.0377   -4.6017 N   0  0  0  0  0  0  0  0  0  0  0  0
    3.5396    2.1009   -0.0209 F   0  0  0  0  0  0  0  0  0  0  0  0
   -0.9592    1.9052    0.0260 H   0  0  0  0  0  0  0  0  0  0  0  0
    1.1554    3.1659    0.0077 H   0  0  0  0  0  0  0  0  0  0  0  0
    3.3381   -0.5027   -0.0329 H   0  0  0  0  0  0  0  0  0  0  0  0
    1.2213   -1.7599   -0.0195 H   0  0  0  0  0  0  0  0  0  0  0  0
   -1.1453   -1.7280    0.5176 H   0  0  0  0  0  0  0  0  0  0  0  0
   -2.0553   -0.1984    0.5345 H   0  0  0  0  0  0  0  0  0  0  0  0
   -3.5564   -0.0092   -1.6699 H   0  0  0  0  0  0  0  0  0  0  0  0
   -2.1074    0.8522   -2.2728 H   0  0  0  0  0  0  0  0  0  0  0  0
   -0.1351   -3.2794   -0.8086 H   0  0  0  0  0  0  0  0  0  0  0  0
    0.2653   -5.0795   -2.4282 H   0  0  0  0  0  0  0  0  0  0  0  0
   -2.1589   -3.0511   -5.2928 H   0  0  0  0  0  0  0  0  0  0  0  0
   -5.2726   -0.4180   -5.4461 H   0  0  0  0  0  0  0  0  0  0  0  0
   -1.3760    0.4031   -4.7142 H   0  0  0  0  0  0  0  0  0  0  0  0
  1  6  2  0  0  0  0
  1  2  1  0  0  0  0
  1 25  1  0  0  0  0
  2  3  2  0  0  0  0
  2 26  1  0  0  0  0
  3  4  1  0  0  0  0
  3 24  1  0  0  0  0
  4  5  2  0  0  0  0
  4 27  1  0  0  0  0
  5  6  1  0  0  0  0
  5 28  1  0  0  0  0
  6  7  1  0  0  0  0
  7  8  1  0  0  0  0
  7 29  1  0  0  0  0
  7 30  1  0  0  0  0
  8 12  1  0  0  0  0
  8  9  1  0  0  0  0
  9 10  1  0  0  0  0
  9 31  1  0  0  0  0
  9 32  1  0  0  0  0
 10 23  1  0  0  0  0
 10 11  1  0  0  0  0
 10 18  1  0  0  0  0
 11 16  2  0  0  0  0
 11 12  1  0  0  0  0
 12 13  2  0  0  0  0
 13 14  1  0  0  0  0
 13 33  1  0  0  0  0
 14 15  2  0  0  0  0
 14 34  1  0  0  0  0
 15 16  1  0  0  0  0
 15 17  1  0  0  0  0
 16 35  1  0  0  0  0
 18 19  2  0  0  0  0
 18 20  1  0  0  0  0
 20 21  1  0  0  0  0
 20 36  1  0  0  0  0
 21 22  2  0  0  0  0
 21 23  1  0  0  0  0
 23 37  1  0  0  0  0
M  END
$$$$
CHEMBL281620
  -OEChem-07121202273D

 36 39  0     1  0  0  0  0  0999 V2000
   -0.0167    1.3782    0.0096 C   0  0  0  0  0  0  0  0  0  0  0  0
    1.1703    2.0860    0.0021 C   0  0  0  0  0  0  0  0  0  0  0  0
    2.3786    1.4101   -0.0131 C   0  0  0  0  0  0  0  0  0  0  0  0
    2.3962    0.0256   -0.0207 C   0  0  0  0  0  0  0  0  0  0  0  0
    1.2079   -0.6800   -0.0132 C   0  0  0  0  0  0  0  0  0  0  0  0
    0.0021   -0.0041    0.0020 C   0  0  0  0  0  0  0  0  0  0  0  0
   -1.2930   -0.7747    0.0103 C   0  0  0  0  0  0  0  0  0  0  0  0
   -1.7258   -1.0170   -1.3682 N   0  0  3  0  0  0  0  0  0  0  0  0
   -2.5848   -0.1200   -2.1514 C   0  0  0  0  0  0  0  0  0  0  0  0
   -2.7373   -0.8104   -3.5060 C   0  0  1  0  0  0  0  0  0  0  0  0
   -1.9423   -2.0819   -3.4019 C   0  0  0  0  0  0  0  0  0  0  0  0
   -1.3768   -2.1339   -2.1343 C   0  0  0  0  0  0  0  0  0  0  0  0
   -0.5788   -3.2260   -1.7919 C   0  0  0  0  0  0  0  0  0  0  0  0
   -0.3538   -4.2378   -2.7012 C   0  0  0  0  0  0  0  0  0  0  0  0
   -0.9188   -4.1767   -3.9636 C   0  0  0  0  0  0  0  0  0  0  0  0
   -1.7180   -3.1004   -4.3082 C   0  0  0  0  0  0  0  0  0  0  0  0
   -0.6972   -5.1686   -4.8537 F   0  0  0  0  0  0  0  0  0  0  0  0
   -4.1822   -1.0787   -3.8340 C   0  0  0  0  0  0  0  0  0  0  0  0
   -5.0518   -1.8145   -3.1229 O   0  5  0  0  0  0  0  0  0  0  0  0
   -4.4152   -0.4456   -4.9554 N   0  0  0  0  0  0  0  0  0  0  0  0
   -3.3335    0.2005   -5.4131 C   0  0  0  0  0  0  0  0  0  0  0  0
   -3.3156    0.8558   -6.4384 O   0  0  0  0  0  0  0  0  0  0  0  0
   -2.2661    0.0385   -4.6019 N   0  0  0  0  0  0  0  0  0  0  0  0
    3.5396    2.1009   -0.0209 F   0  0  0  0  0  0  0  0  0  0  0  0
   -0.9592    1.9052    0.0260 H   0  0  0  0  0  0  0  0  0  0  0  0
    1.1554    3.1659    0.0077 H   0  0  0  0  0  0  0  0  0  0  0  0
    3.3381   -0.5027   -0.0329 H   0  0  0  0  0  0  0  0  0  0  0  0
    1.2213   -1.7599   -0.0195 H   0  0  0  0  0  0  0  0  0  0  0  0
   -1.1453   -1.7280    0.5176 H   0  0  0  0  0  0  0  0  0  0  0  0
   -2.0553   -0.1984    0.5345 H   0  0  0  0  0  0  0  0  0  0  0  0
   -3.5566   -0.0094   -1.6702 H   0  0  0  0  0  0  0  0  0  0  0  0
   -2.1076    0.8524   -2.2726 H   0  0  0  0  0  0  0  0  0  0  0  0
   -0.1345   -3.2791   -0.8089 H   0  0  0  0  0  0  0  0  0  0  0  0
    0.2650   -5.0797   -2.4281 H   0  0  0  0  0  0  0  0  0  0  0  0
   -2.1585   -3.0510   -5.2930 H   0  0  0  0  0  0  0  0  0  0  0  0
   -1.3765    0.4067   -4.7199 H   0  0  0  0  0  0  0  0  0  0  0  0
  1  6  2  0  0  0  0
  1  2  1  0  0  0  0
  1 25  1  0  0  0  0
  2  3  2  0  0  0  0
  2 26  1  0  0  0  0
  3  4  1  0  0  0  0
  3 24  1  0  0  0  0
  4  5  2  0  0  0  0
  4 27  1  0  0  0  0
  5  6  1  0  0  0  0
  5 28  1  0  0  0  0
  6  7  1  0  0  0  0
  7  8  1  0  0  0  0
  7 29  1  0  0  0  0
  7 30  1  0  0  0  0
  8 12  1  0  0  0  0
  8  9  1  0  0  0  0
  9 10  1  0  0  0  0
  9 31  1  0  0  0  0
  9 32  1  0  0  0  0
 10 23  1  0  0  0  0
 10 11  1  0  0  0  0
 10 18  1  0  0  0  0
 11 16  2  0  0  0  0
 11 12  1  0  0  0  0
 12 13  2  0  0  0  0
 13 14  1  0  0  0  0
 13 33  1  0  0  0  0
 14 15  2  0  0  0  0
 14 34  1  0  0  0  0
 15 16  1  0  0  0  0
 15 17  1  0  0  0  0
 16 35  1  0  0  0  0
 18 19  1  0  0  0  0
 18 20  2  0  0  0  0
 20 21  1  0  0  0  0
 21 22  2  0  0  0  0
 21 23  1  0  0  0  0
 23 36  1  0  0  0  0
M  CHG  1  19  -1
M  END
$$$$
CHEMBL20685
  -OEChem-07121202273D

 39 43  0     1  0  0  0  0  0999 V2000
   -0.0164    1.3570    0.0095 C   0  0  0  0  0  0  0  0  0  0  0  0
    1.1559    2.1003    0.0023 C   0  0  0  0  0  0  0  0  0  0  0  0
    2.3751    1.4492   -0.0129 C   0  0  0  0  0  0  0  0  0  0  0  0
    2.4044    0.0758   -0.0205 C   0  0  0  0  0  0  0  0  0  0  0  0
    1.2262   -0.7047   -0.0135 C   0  0  0  0  0  0  0  0  0  0  0  0
    0.0021   -0.0041    0.0020 C   0  0  0  0  0  0  0  0  0  0  0  0
    1.4635   -2.0326   -0.0233 N   0  0  0  0  0  0  0  0  0  0  0  0
    2.6693   -2.5212   -0.0378 C   0  0  0  0  0  0  0  0  0  0  0  0
    3.6694   -1.1675   -0.0399 S   0  0  0  0  0  0  0  0  0  0  0  0
    3.0782   -3.9717   -0.0496 C   0  0  0  0  0  0  0  0  0  0  0  0
    3.1970   -4.4343   -1.4345 N   0  0  3  0  0  0  0  0  0  0  0  0
    2.1064   -5.0213   -2.2229 C   0  0  0  0  0  0  0  0  0  0  0  0
    2.7321   -5.3356   -3.5813 C   0  0  2  0  0  0  0  0  0  0  0  0
    4.1656   -4.8951   -3.4751 C   0  0  0  0  0  0  0  0  0  0  0  0
    4.3639   -4.3764   -2.2019 C   0  0  0  0  0  0  0  0  0  0  0  0
    5.6260   -3.8916   -1.8564 C   0  0  0  0  0  0  0  0  0  0  0  0
    6.6588   -3.9236   -2.7691 C   0  0  0  0  0  0  0  0  0  0  0  0
    6.4508   -4.4368   -4.0370 C   0  0  0  0  0  0  0  0  0  0  0  0
    5.2054   -4.9291   -4.3841 C   0  0  0  0  0  0  0  0  0  0  0  0
    7.7525   -4.4749   -5.1849 Cl  0  0  0  0  0  0  0  0  0  0  0  0
    2.0124   -4.6287   -4.7000 C   0  0  0  0  0  0  0  0  0  0  0  0
    1.8562   -3.4342   -4.8357 O   0  0  0  0  0  0  0  0  0  0  0  0
    1.5791   -5.6108   -5.5202 N   0  0  0  0  0  0  0  0  0  0  0  0
    1.9290   -6.8216   -5.0666 C   0  0  0  0  0  0  0  0  0  0  0  0
    1.6529   -7.8613   -5.6322 O   0  0  0  0  0  0  0  0  0  0  0  0
    2.6221   -6.7569   -3.9116 N   0  0  0  0  0  0  0  0  0  0  0  0
   -0.9661    1.8710    0.0259 H   0  0  0  0  0  0  0  0  0  0  0  0
    1.1157    3.1795    0.0081 H   0  0  0  0  0  0  0  0  0  0  0  0
    3.2953    2.0145   -0.0190 H   0  0  0  0  0  0  0  0  0  0  0  0
   -0.9285   -0.5522    0.0083 H   0  0  0  0  0  0  0  0  0  0  0  0
    4.0384   -4.0826    0.4542 H   0  0  0  0  0  0  0  0  0  0  0  0
    2.3252   -4.5656    0.4686 H   0  0  0  0  0  0  0  0  0  0  0  0
    1.7460   -5.9351   -1.7505 H   0  0  0  0  0  0  0  0  0  0  0  0
    1.2924   -4.3054   -2.3365 H   0  0  0  0  0  0  0  0  0  0  0  0
    5.7948   -3.4895   -0.8684 H   0  0  0  0  0  0  0  0  0  0  0  0
    7.6327   -3.5466   -2.4938 H   0  0  0  0  0  0  0  0  0  0  0  0
    5.0418   -5.3292   -5.3739 H   0  0  0  0  0  0  0  0  0  0  0  0
    1.0768   -5.4582   -6.3358 H   0  0  0  0  0  0  0  0  0  0  0  0
    2.9766   -7.5025   -3.4024 H   0  0  0  0  0  0  0  0  0  0  0  0
  1  6  2  0  0  0  0
  1  2  1  0  0  0  0
  1 27  1  0  0  0  0
  2  3  2  0  0  0  0
  2 28  1  0  0  0  0
  3  4  1  0  0  0  0
  3 29  1  0  0  0  0
  4  9  1  0  0  0  0
  4  5  2  0  0  0  0
  5  6  1  0  0  0  0
  5  7  1  0  0  0  0
  6 30  1  0  0  0  0
  7  8  2  0  0  0  0
  8  9  1  0  0  0  0
  8 10  1  0  0  0  0
 10 11  1  0  0  0  0
 10 31  1  0  0  0  0
 10 32  1  0  0  0  0
 11 15  1  0  0  0  0
 11 12  1  0  0  0  0
 12 13  1  0  0  0  0
 12 33  1  0  0  0  0
 12 34  1  0  0  0  0
 13 26  1  0  0  0  0
 13 14  1  0  0  0  0
 13 21  1  0  0  0  0
 14 19  2  0  0  0  0
 14 15  1  0  0  0  0
 15 16  2  0  0  0  0
 16 17  1  0  0  0  0
 16 35  1  0  0  0  0
 17 18  2  0  0  0  0
 17 36  1  0  0  0  0
 18 19  1  0  0  0  0
 18 20  1  0  0  0  0
 19 37  1  0  0  0  0
 21 22  2  0  0  0  0
 21 23  1  0  0  0  0
 23 24  1  0  0  0  0
 23 38  1  0  0  0  0
 24 25  2  0  0  0  0
 24 26  1  0  0  0  0
 26 39  1  0  0  0  0
M  END
$$$$
CHEMBL20685
  -OEChem-07121202273D

 38 42  0     1  0  0  0  0  0999 V2000
   -0.0164    1.3570    0.0095 C   0  0  0  0  0  0  0  0  0  0  0  0
    1.1559    2.1003    0.0023 C   0  0  0  0  0  0  0  0  0  0  0  0
    2.3751    1.4492   -0.0129 C   0  0  0  0  0  0  0  0  0  0  0  0
    2.4044    0.0758   -0.0205 C   0  0  0  0  0  0  0  0  0  0  0  0
    1.2262   -0.7047   -0.0135 C   0  0  0  0  0  0  0  0  0  0  0  0
    0.0021   -0.0041    0.0020 C   0  0  0  0  0  0  0  0  0  0  0  0
    1.4635   -2.0326   -0.0233 N   0  0  0  0  0  0  0  0  0  0  0  0
    2.6693   -2.5212   -0.0378 C   0  0  0  0  0  0  0  0  0  0  0  0
    3.6694   -1.1675   -0.0399 S   0  0  0  0  0  0  0  0  0  0  0  0
    3.0782   -3.9717   -0.0496 C   0  0  0  0  0  0  0  0  0  0  0  0
    3.1970   -4.4343   -1.4345 N   0  0  3  0  0  0  0  0  0  0  0  0
    2.1063   -5.0213   -2.2229 C   0  0  0  0  0  0  0  0  0  0  0  0
    2.7324   -5.3359   -3.5809 C   0  0  2  0  0  0  0  0  0  0  0  0
    4.1656   -4.8953   -3.4752 C   0  0  0  0  0  0  0  0  0  0  0  0
    4.3639   -4.3764   -2.2019 C   0  0  0  0  0  0  0  0  0  0  0  0
    5.6260   -3.8915   -1.8565 C   0  0  0  0  0  0  0  0  0  0  0  0
    6.6587   -3.9232   -2.7693 C   0  0  0  0  0  0  0  0  0  0  0  0
    6.4507   -4.4364   -4.0372 C   0  0  0  0  0  0  0  0  0  0  0  0
    5.2054   -4.9291   -4.3842 C   0  0  0  0  0  0  0  0  0  0  0  0
    7.7522   -4.4735   -5.1854 Cl  0  0  0  0  0  0  0  0  0  0  0  0
    2.0119   -4.6343   -4.7015 C   0  0  0  0  0  0  0  0  0  0  0  0
    1.8391   -3.3110   -4.8510 O   0  5  0  0  0  0  0  0  0  0  0  0
    1.5894   -5.5812   -5.4999 N   0  0  0  0  0  0  0  0  0  0  0  0
    1.9272   -6.8043   -5.0675 C   0  0  0  0  0  0  0  0  0  0  0  0
    1.6407   -7.8345   -5.6485 O   0  0  0  0  0  0  0  0  0  0  0  0
    2.6225   -6.7582   -3.9108 N   0  0  0  0  0  0  0  0  0  0  0  0
   -0.9661    1.8710    0.0259 H   0  0  0  0  0  0  0  0  0  0  0  0
    1.1157    3.1795    0.0081 H   0  0  0  0  0  0  0  0  0  0  0  0
    3.2953    2.0145   -0.0190 H   0  0  0  0  0  0  0  0  0  0  0  0
   -0.9285   -0.5522    0.0083 H   0  0  0  0  0  0  0  0  0  0  0  0
    4.0384   -4.0826    0.4542 H   0  0  0  0  0  0  0  0  0  0  0  0
    2.3252   -4.5656    0.4686 H   0  0  0  0  0  0  0  0  0  0  0  0
    1.7457   -5.9350   -1.7505 H   0  0  0  0  0  0  0  0  0  0  0  0
    1.2925   -4.3053   -2.3370 H   0  0  0  0  0  0  0  0  0  0  0  0
    5.7948   -3.4894   -0.8685 H   0  0  0  0  0  0  0  0  0  0  0  0
    7.6326   -3.5461   -2.4940 H   0  0  0  0  0  0  0  0  0  0  0  0
    5.0420   -5.3295   -5.3738 H   0  0  0  0  0  0  0  0  0  0  0  0
    2.9744   -7.5079   -3.4059 H   0  0  0  0  0  0  0  0  0  0  0  0
  1  6  2  0  0  0  0
  1  2  1  0  0  0  0
  1 27  1  0  0  0  0
  2  3  2  0  0  0  0
  2 28  1  0  0  0  0
  3  4  1  0  0  0  0
  3 29  1  0  0  0  0
  4  9  1  0  0  0  0
  4  5  2  0  0  0  0
  5  6  1  0  0  0  0
  5  7  1  0  0  0  0
  6 30  1  0  0  0  0
  7  8  2  0  0  0  0
  8  9  1  0  0  0  0
  8 10  1  0  0  0  0
 10 11  1  0  0  0  0
 10 31  1  0  0  0  0
 10 32  1  0  0  0  0
 11 15  1  0  0  0  0
 11 12  1  0  0  0  0
 12 13  1  0  0  0  0
 12 33  1  0  0  0  0
 12 34  1  0  0  0  0
 13 26  1  0  0  0  0
 13 14  1  0  0  0  0
 13 21  1  0  0  0  0
 14 19  2  0  0  0  0
 14 15  1  0  0  0  0
 15 16  2  0  0  0  0
 16 17  1  0  0  0  0
 16 35  1  0  0  0  0
 17 18  2  0  0  0  0
 17 36  1  0  0  0  0
 18 19  1  0  0  0  0
 18 20  1  0  0  0  0
 19 37  1  0  0  0  0
 21 22  1  0  0  0  0
 21 23  2  0  0  0  0
 23 24  1  0  0  0  0
 24 25  2  0  0  0  0
 24 26  1  0  0  0  0
 26 38  1  0  0  0  0
M  CHG  1  22  -1
M  END
$$$$
CHEMBL20685
  -OEChem-07121202273D

 39 43  0     1  0  0  0  0  0999 V2000
   -0.0164    1.3570    0.0095 C   0  0  0  0  0  0  0  0  0  0  0  0
    1.1559    2.1003    0.0023 C   0  0  0  0  0  0  0  0  0  0  0  0
    2.3751    1.4492   -0.0129 C   0  0  0  0  0  0  0  0  0  0  0  0
    2.4044    0.0758   -0.0205 C   0  0  0  0  0  0  0  0  0  0  0  0
    1.2262   -0.7047   -0.0135 C   0  0  0  0  0  0  0  0  0  0  0  0
    0.0021   -0.0041    0.0020 C   0  0  0  0  0  0  0  0  0  0  0  0
    1.4635   -2.0326   -0.0233 N   0  0  0  0  0  0  0  0  0  0  0  0
    2.6693   -2.5212   -0.0378 C   0  0  0  0  0  0  0  0  0  0  0  0
    3.6694   -1.1675   -0.0399 S   0  0  0  0  0  0  0  0  0  0  0  0
    3.0782   -3.9717   -0.0496 C   0  0  0  0  0  0  0  0  0  0  0  0
    3.1970   -4.4343   -1.4345 N   0  0  3  0  0  0  0  0  0  0  0  0
    2.1064   -5.0213   -2.2229 C   0  0  0  0  0  0  0  0  0  0  0  0
    2.7308   -5.3311   -3.5829 C   0  0  1  0  0  0  0  0  0  0  0  0
    4.1652   -4.8938   -3.4756 C   0  0  0  0  0  0  0  0  0  0  0  0
    4.3639   -4.3764   -2.2019 C   0  0  0  0  0  0  0  0  0  0  0  0
    5.6261   -3.8921   -1.8563 C   0  0  0  0  0  0  0  0  0  0  0  0
    6.6593   -3.9251   -2.7686 C   0  0  0  0  0  0  0  0  0  0  0  0
    6.4515   -4.4392   -4.0362 C   0  0  0  0  0  0  0  0  0  0  0  0
    5.2055   -4.9297   -4.3839 C   0  0  0  0  0  0  0  0  0  0  0  0
    7.7541   -4.4803   -5.1830 Cl  0  0  0  0  0  0  0  0  0  0  0  0
    2.6173   -6.7937   -3.9248 C   0  0  0  0  0  0  0  0  0  0  0  0
    3.0564   -7.7327   -3.2961 O   0  0  0  0  0  0  0  0  0  0  0  0
    1.9212   -6.8351   -5.0818 N   0  0  0  0  0  0  0  0  0  0  0  0
    1.5896   -5.6071   -5.5015 C   0  0  0  0  0  0  0  0  0  0  0  0
    0.9609   -5.3866   -6.5180 O   0  0  0  0  0  0  0  0  0  0  0  0
    2.0314   -4.6429   -4.6686 N   0  0  0  0  0  0  0  0  0  0  0  0
   -0.9661    1.8710    0.0259 H   0  0  0  0  0  0  0  0  0  0  0  0
    1.1157    3.1795    0.0081 H   0  0  0  0  0  0  0  0  0  0  0  0
    3.2953    2.0145   -0.0190 H   0  0  0  0  0  0  0  0  0  0  0  0
   -0.9285   -0.5522    0.0083 H   0  0  0  0  0  0  0  0  0  0  0  0
    4.0384   -4.0826    0.4542 H   0  0  0  0  0  0  0  0  0  0  0  0
    2.3252   -4.5656    0.4686 H   0  0  0  0  0  0  0  0  0  0  0  0
    1.7482   -5.9370   -1.7523 H   0  0  0  0  0  0  0  0  0  0  0  0
    1.2909   -4.3065   -2.3336 H   0  0  0  0  0  0  0  0  0  0  0  0
    5.7948   -3.4894   -0.8684 H   0  0  0  0  0  0  0  0  0  0  0  0
    7.6333   -3.5484   -2.4932 H   0  0  0  0  0  0  0  0  0  0  0  0
    5.0420   -5.3298   -5.3736 H   0  0  0  0  0  0  0  0  0  0  0  0
    1.6904   -7.6525   -5.5505 H   0  0  0  0  0  0  0  0  0  0  0  0
    1.9096   -3.6858   -4.7686 H   0  0  0  0  0  0  0  0  0  0  0  0
  1  6  2  0  0  0  0
  1  2  1  0  0  0  0
  1 27  1  0  0  0  0
  2  3  2  0  0  0  0
  2 28  1  0  0  0  0
  3  4  1  0  0  0  0
  3 29  1  0  0  0  0
  4  9  1  0  0  0  0
  4  5  2  0  0  0  0
  5  6  1  0  0  0  0
  5  7  1  0  0  0  0
  6 30  1  0  0  0  0
  7  8  2  0  0  0  0
  8  9  1  0  0  0  0
  8 10  1  0  0  0  0
 10 11  1  0  0  0  0
 10 31  1  0  0  0  0
 10 32  1  0  0  0  0
 11 15  1  0  0  0  0
 11 12  1  0  0  0  0
 12 13  1  0  0  0  0
 12 33  1  0  0  0  0
 12 34  1  0  0  0  0
 13 26  1  0  0  0  0
 13 14  1  0  0  0  0
 13 21  1  0  0  0  0
 14 19  2  0  0  0  0
 14 15  1  0  0  0  0
 15 16  2  0  0  0  0
 16 17  1  0  0  0  0
 16 35  1  0  0  0  0
 17 18  2  0  0  0  0
 17 36  1  0  0  0  0
 18 19  1  0  0  0  0
 18 20  1  0  0  0  0
 19 37  1  0  0  0  0
 21 22  2  0  0  0  0
 21 23  1  0  0  0  0
 23 24  1  0  0  0  0
 23 38  1  0  0  0  0
 24 25  2  0  0  0  0
 24 26  1  0  0  0  0
 26 39  1  0  0  0  0
M  END
$$$$
CHEMBL20685
  -OEChem-07121202273D

 38 42  0     1  0  0  0  0  0999 V2000
   -0.0164    1.3570    0.0095 C   0  0  0  0  0  0  0  0  0  0  0  0
    1.1559    2.1003    0.0023 C   0  0  0  0  0  0  0  0  0  0  0  0
    2.3751    1.4492   -0.0129 C   0  0  0  0  0  0  0  0  0  0  0  0
    2.4044    0.0758   -0.0205 C   0  0  0  0  0  0  0  0  0  0  0  0
    1.2262   -0.7047   -0.0135 C   0  0  0  0  0  0  0  0  0  0  0  0
    0.0021   -0.0041    0.0020 C   0  0  0  0  0  0  0  0  0  0  0  0
    1.4635   -2.0326   -0.0233 N   0  0  0  0  0  0  0  0  0  0  0  0
    2.6693   -2.5212   -0.0378 C   0  0  0  0  0  0  0  0  0  0  0  0
    3.6694   -1.1675   -0.0399 S   0  0  0  0  0  0  0  0  0  0  0  0
    3.0782   -3.9717   -0.0496 C   0  0  0  0  0  0  0  0  0  0  0  0
    3.1970   -4.4343   -1.4345 N   0  0  3  0  0  0  0  0  0  0  0  0
    2.1063   -5.0213   -2.2229 C   0  0  0  0  0  0  0  0  0  0  0  0
    2.7308   -5.3305   -3.5828 C   0  0  1  0  0  0  0  0  0  0  0  0
    4.1652   -4.8937   -3.4758 C   0  0  0  0  0  0  0  0  0  0  0  0
    4.3639   -4.3764   -2.2019 C   0  0  0  0  0  0  0  0  0  0  0  0
    5.6263   -3.8928   -1.8561 C   0  0  0  0  0  0  0  0  0  0  0  0
    6.6595   -3.9258   -2.7684 C   0  0  0  0  0  0  0  0  0  0  0  0
    6.4516   -4.4395   -4.0361 C   0  0  0  0  0  0  0  0  0  0  0  0
    5.2057   -4.9300   -4.3838 C   0  0  0  0  0  0  0  0  0  0  0  0
    7.7539   -4.4796   -5.1832 Cl  0  0  0  0  0  0  0  0  0  0  0  0
    2.6146   -6.7912   -3.9292 C   0  0  0  0  0  0  0  0  0  0  0  0
    3.1016   -7.8307   -3.2325 O   0  5  0  0  0  0  0  0  0  0  0  0
    1.9405   -6.8378   -5.0499 N   0  0  0  0  0  0  0  0  0  0  0  0
    1.5962   -5.6198   -5.4916 C   0  0  0  0  0  0  0  0  0  0  0  0
    0.9659   -5.4196   -6.5131 O   0  0  0  0  0  0  0  0  0  0  0  0
    2.0311   -4.6414   -4.6688 N   0  0  0  0  0  0  0  0  0  0  0  0
   -0.9661    1.8710    0.0259 H   0  0  0  0  0  0  0  0  0  0  0  0
    1.1157    3.1795    0.0081 H   0  0  0  0  0  0  0  0  0  0  0  0
    3.2953    2.0145   -0.0190 H   0  0  0  0  0  0  0  0  0  0  0  0
   -0.9285   -0.5522    0.0083 H   0  0  0  0  0  0  0  0  0  0  0  0
    4.0384   -4.0826    0.4542 H   0  0  0  0  0  0  0  0  0  0  0  0
    2.3252   -4.5656    0.4686 H   0  0  0  0  0  0  0  0  0  0  0  0
    1.7484   -5.9372   -1.7526 H   0  0  0  0  0  0  0  0  0  0  0  0
    1.2908   -4.3067   -2.3335 H   0  0  0  0  0  0  0  0  0  0  0  0
    5.7950   -3.4901   -0.8682 H   0  0  0  0  0  0  0  0  0  0  0  0
    7.6335   -3.5494   -2.4929 H   0  0  0  0  0  0  0  0  0  0  0  0
    5.0422   -5.3304   -5.3735 H   0  0  0  0  0  0  0  0  0  0  0  0
    1.9064   -3.6853   -4.7746 H   0  0  0  0  0  0  0  0  0  0  0  0
  1  6  2  0  0  0  0
  1  2  1  0  0  0  0
  1 27  1  0  0  0  0
  2  3  2  0  0  0  0
  2 28  1  0  0  0  0
  3  4  1  0  0  0  0
  3 29  1  0  0  0  0
  4  9  1  0  0  0  0
  4  5  2  0  0  0  0
  5  6  1  0  0  0  0
  5  7  1  0  0  0  0
  6 30  1  0  0  0  0
  7  8  2  0  0  0  0
  8  9  1  0  0  0  0
  8 10  1  0  0  0  0
 10 11  1  0  0  0  0
 10 31  1  0  0  0  0
 10 32  1  0  0  0  0
 11 15  1  0  0  0  0
 11 12  1  0  0  0  0
 12 13  1  0  0  0  0
 12 33  1  0  0  0  0
 12 34  1  0  0  0  0
 13 26  1  0  0  0  0
 13 14  1  0  0  0  0
 13 21  1  0  0  0  0
 14 19  2  0  0  0  0
 14 15  1  0  0  0  0
 15 16  2  0  0  0  0
 16 17  1  0  0  0  0
 16 35  1  0  0  0  0
 17 18  2  0  0  0  0
 17 36  1  0  0  0  0
 18 19  1  0  0  0  0
 18 20  1  0  0  0  0
 19 37  1  0  0  0  0
 21 22  1  0  0  0  0
 21 23  2  0  0  0  0
 23 24  1  0  0  0  0
 24 25  2  0  0  0  0
 24 26  1  0  0  0  0
 26 38  1  0  0  0  0
M  CHG  1  22  -1
M  END
$$$$
CHEMBL422647
  -OEChem-07121202273D

 43 46  0     0  0  0  0  0  0999 V2000
    2.0112   -1.9928    2.0100 C   0  0  0  0  0  0  0  0  0  0  0  0
    0.9750   -1.6807    0.9612 C   0  0  0  0  0  0  0  0  0  0  0  0
    1.0350   -2.2940   -0.2741 C   0  0  0  0  0  0  0  0  0  0  0  0
    0.0850   -2.0082   -1.2376 C   0  0  0  0  0  0  0  0  0  0  0  0
   -0.9302   -1.1074   -0.9696 C   0  0  0  0  0  0  0  0  0  0  0  0
   -0.9997   -0.4886    0.2619 C   0  0  0  0  0  0  0  0  0  0  0  0
   -0.0484   -0.7772    1.2385 C   0  0  0  0  0  0  0  0  0  0  0  0
   -0.1218   -0.1198    2.5671 C   0  0  0  0  0  0  0  0  0  0  0  0
    0.0059   -0.7364    3.7557 N   0  0  0  0  0  0  0  0  0  0  0  0
   -0.1098    0.1293    4.7219 C   0  0  0  0  0  0  0  0  0  0  0  0
   -0.3169    1.3389    4.1858 O   0  0  0  0  0  0  0  0  0  0  0  0
   -0.3162    1.1586    2.7775 N   0  0  0  0  0  0  0  0  0  0  0  0
   -0.0248   -0.1783    6.1948 C   0  0  0  0  0  0  0  0  0  0  0  0
    1.3661   -0.0591    6.6391 N   0  0  0  0  0  0  0  0  0  0  0  0
    1.8113    1.1317    7.0915 C   0  0  0  0  0  0  0  0  0  0  0  0
    1.0695    2.0971    7.1314 O   0  0  0  0  0  0  0  0  0  0  0  0
    3.2064    1.2415    7.5351 C   0  0  0  0  0  0  0  0  0  0  0  0
    3.7375    2.4380    8.0150 C   0  0  0  0  0  0  0  0  0  0  0  0
    5.0543    2.4800    8.4175 C   0  0  0  0  0  0  0  0  0  0  0  0
    5.8532    1.3458    8.3490 C   0  0  0  0  0  0  0  0  0  0  0  0
    5.3539    0.1622    7.8820 C   0  0  0  0  0  0  0  0  0  0  0  0
    4.0227    0.0893    7.4674 C   0  0  0  0  0  0  0  0  0  0  0  0
    3.4388   -1.1525    6.9601 C   0  0  0  0  0  0  0  0  0  0  0  0
    2.1936   -1.1812    6.5886 N   0  0  0  0  0  0  0  0  0  0  0  0
    4.2796   -2.4002    6.8741 C   0  0  0  0  0  0  0  0  0  0  0  0
    3.4476   -3.5296    6.3234 C   0  0  0  0  0  0  0  0  0  0  0  0
    2.2801   -3.3390    6.0282 O   0  0  0  0  0  0  0  0  0  0  0  0
    3.9419   -4.6339    6.1731 O   0  5  0  0  0  0  0  0  0  0  0  0
    1.6352   -2.7733    2.6713 H   0  0  0  0  0  0  0  0  0  0  0  0
    2.9258   -2.3358    1.5263 H   0  0  0  0  0  0  0  0  0  0  0  0
    2.2221   -1.0948    2.5908 H   0  0  0  0  0  0  0  0  0  0  0  0
    1.8254   -2.9980   -0.4886 H   0  0  0  0  0  0  0  0  0  0  0  0
    0.1360   -2.4897   -2.2030 H   0  0  0  0  0  0  0  0  0  0  0  0
   -1.6696   -0.8878   -1.7256 H   0  0  0  0  0  0  0  0  0  0  0  0
   -1.7925    0.2147    0.4701 H   0  0  0  0  0  0  0  0  0  0  0  0
   -0.6450    0.5259    6.7494 H   0  0  0  0  0  0  0  0  0  0  0  0
   -0.3780   -1.1936    6.3749 H   0  0  0  0  0  0  0  0  0  0  0  0
    3.1222    3.3239    8.0704 H   0  0  0  0  0  0  0  0  0  0  0  0
    5.4700    3.4046    8.7900 H   0  0  0  0  0  0  0  0  0  0  0  0
    6.8834    1.3999    8.6688 H   0  0  0  0  0  0  0  0  0  0  0  0
    5.9859   -0.7122    7.8339 H   0  0  0  0  0  0  0  0  0  0  0  0
    5.1297   -2.2207    6.2159 H   0  0  0  0  0  0  0  0  0  0  0  0
    4.6394   -2.6652    7.8683 H   0  0  0  0  0  0  0  0  0  0  0  0
  1  2  1  0  0  0  0
  1 29  1  0  0  0  0
  1 30  1  0  0  0  0
  1 31  1  0  0  0  0
  2  7  2  0  0  0  0
  2  3  1  0  0  0  0
  3  4  2  0  0  0  0
  3 32  1  0  0  0  0
  4  5  1  0  0  0  0
  4 33  1  0  0  0  0
  5  6  2  0  0  0  0
  5 34  1  0  0  0  0
  6  7  1  0  0  0  0
  6 35  1  0  0  0  0
  7  8  1  0  0  0  0
  8 12  2  0  0  0  0
  8  9  1  0  0  0  0
  9 10  2  0  0  0  0
 10 11  1  0  0  0  0
 10 13  1  0  0  0  0
 11 12  1  0  0  0  0
 13 14  1  0  0  0  0
 13 36  1  0  0  0  0
 13 37  1  0  0  0  0
 14 24  1  0  0  0  0
 14 15  1  0  0  0  0
 15 16  2  0  0  0  0
 15 17  1  0  0  0  0
 17 22  2  0  0  0  0
 17 18  1  0  0  0  0
 18 19  2  0  0  0  0
 18 38  1  0  0  0  0
 19 20  1  0  0  0  0
 19 39  1  0  0  0  0
 20 21  2  0  0  0  0
 20 40  1  0  0  0  0
 21 22  1  0  0  0  0
 21 41  1  0  0  0  0
 22 23  1  0  0  0  0
 23 24  2  0  0  0  0
 23 25  1  0  0  0  0
 25 26  1  0  0  0  0
 25 42  1  0  0  0  0
 25 43  1  0  0  0  0
 26 27  2  0  0  0  0
 26 28  1  0  0  0  0
M  CHG  1  28  -1
M  END
$$$$
CHEMBL344526
  -OEChem-07121202273D

 38 41  0     0  0  0  0  0  0999 V2000
   -0.0165    1.3627    0.0095 C   0  0  0  0  0  0  0  0  0  0  0  0
    1.1654    2.0924    0.0022 C   0  0  0  0  0  0  0  0  0  0  0  0
    2.3861    1.4540   -0.0134 C   0  0  0  0  0  0  0  0  0  0  0  0
    2.4294    0.0605   -0.0213 C   0  0  0  0  0  0  0  0  0  0  0  0
    1.2244   -0.6786   -0.0133 C   0  0  0  0  0  0  0  0  0  0  0  0
    0.0021   -0.0041    0.0020 C   0  0  0  0  0  0  0  0  0  0  0  0
    1.3000   -2.1396   -0.0224 C   0  0  0  0  0  0  0  0  0  0  0  0
    2.4575   -2.7306   -0.0371 N   0  0  0  0  0  0  0  0  0  0  0  0
    3.6626   -2.0276   -0.0452 N   0  0  0  0  0  0  0  0  0  0  0  0
    3.6977   -0.6787   -0.0384 C   0  0  0  0  0  0  0  0  0  0  0  0
    4.7616   -0.0856   -0.0461 O   0  0  0  0  0  0  0  0  0  0  0  0
    4.9232   -2.7737   -0.0618 C   0  0  0  0  0  0  0  0  0  0  0  0
    5.3696   -3.0372    1.3533 C   0  0  0  0  0  0  0  0  0  0  0  0
    5.1282   -4.1634    2.0588 C   0  0  0  0  0  0  0  0  0  0  0  0
    5.7007   -3.9990    3.2915 N   0  0  0  0  0  0  0  0  0  0  0  0
    5.7690   -4.8031    4.3923 C   0  0  0  0  0  0  0  0  0  0  0  0
    6.4092   -4.3909    5.5060 C   0  0  0  0  0  0  0  0  0  0  0  0
    7.0165   -3.1236    5.5467 C   0  0  0  0  0  0  0  0  0  0  0  0
    6.9559   -2.3120    4.4550 C   0  0  0  0  0  0  0  0  0  0  0  0
    6.2831   -2.7580    3.3004 C   0  0  0  0  0  0  0  0  0  0  0  0
    6.0747   -2.1984    2.1167 N   0  0  0  0  0  0  0  0  0  0  0  0
    7.8390   -2.5960    6.9815 Cl  0  0  0  0  0  0  0  0  0  0  0  0
    0.0356   -2.9595   -0.0143 C   0  0  0  0  0  0  0  0  0  0  0  0
    0.3870   -4.4249   -0.0262 C   0  0  0  0  0  0  0  0  0  0  0  0
    1.5559   -4.7714   -0.0401 O   0  0  0  0  0  0  0  0  0  0  0  0
   -0.4975   -5.2640   -0.0221 O   0  5  0  0  0  0  0  0  0  0  0  0
   -0.9631    1.8823    0.0259 H   0  0  0  0  0  0  0  0  0  0  0  0
    1.1269    3.1717    0.0083 H   0  0  0  0  0  0  0  0  0  0  0  0
    3.3010    2.0277   -0.0197 H   0  0  0  0  0  0  0  0  0  0  0  0
   -0.9242   -0.5594    0.0075 H   0  0  0  0  0  0  0  0  0  0  0  0
    4.7775   -3.7219   -0.5793 H   0  0  0  0  0  0  0  0  0  0  0  0
    5.6841   -2.1901   -0.5800 H   0  0  0  0  0  0  0  0  0  0  0  0
    4.5848   -5.0311    1.7150 H   0  0  0  0  0  0  0  0  0  0  0  0
    5.3058   -5.7785    4.3716 H   0  0  0  0  0  0  0  0  0  0  0  0
    6.4549   -5.0371    6.3702 H   0  0  0  0  0  0  0  0  0  0  0  0
    7.4187   -1.3364    4.4742 H   0  0  0  0  0  0  0  0  0  0  0  0
   -0.5398   -2.7311    0.8829 H   0  0  0  0  0  0  0  0  0  0  0  0
   -0.5578   -2.7210   -0.8970 H   0  0  0  0  0  0  0  0  0  0  0  0
  1  6  2  0  0  0  0
  1  2  1  0  0  0  0
  1 27  1  0  0  0  0
  2  3  2  0  0  0  0
  2 28  1  0  0  0  0
  3  4  1  0  0  0  0
  3 29  1  0  0  0  0
  4 10  1  0  0  0  0
  4  5  2  0  0  0  0
  5  6  1  0  0  0  0
  5  7  1  0  0  0  0
  6 30  1  0  0  0  0
  7  8  2  0  0  0  0
  7 23  1  0  0  0  0
  8  9  1  0  0  0  0
  9 10  1  0  0  0  0
  9 12  1  0  0  0  0
 10 11  2  0  0  0  0
 12 13  1  0  0  0  0
 12 31  1  0  0  0  0
 12 32  1  0  0  0  0
 13 21  1  0  0  0  0
 13 14  2  0  0  0  0
 14 15  1  0  0  0  0
 14 33  1  0  0  0  0
 15 20  1  0  0  0  0
 15 16  1  0  0  0  0
 16 17  2  0  0  0  0
 16 34  1  0  0  0  0
 17 18  1  0  0  0  0
 17 35  1  0  0  0  0
 18 19  2  0  0  0  0
 18 22  1  0  0  0  0
 19 20  1  0  0  0  0
 19 36  1  0  0  0  0
 20 21  2  0  0  0  0
 23 24  1  0  0  0  0
 23 37  1  0  0  0  0
 23 38  1  0  0  0  0
 24 25  2  0  0  0  0
 24 26  1  0  0  0  0
M  CHG  1  26  -1
M  END
$$$$
CHEMBL344526
  -OEChem-07121202273D

 39 42  0     0  0  0  0  0  0999 V2000
   -0.0165    1.3627    0.0095 C   0  0  0  0  0  0  0  0  0  0  0  0
    1.1654    2.0924    0.0022 C   0  0  0  0  0  0  0  0  0  0  0  0
    2.3861    1.4540   -0.0134 C   0  0  0  0  0  0  0  0  0  0  0  0
    2.4294    0.0605   -0.0213 C   0  0  0  0  0  0  0  0  0  0  0  0
    1.2244   -0.6786   -0.0133 C   0  0  0  0  0  0  0  0  0  0  0  0
    0.0021   -0.0041    0.0020 C   0  0  0  0  0  0  0  0  0  0  0  0
    1.3000   -2.1396   -0.0224 C   0  0  0  0  0  0  0  0  0  0  0  0
    2.4575   -2.7306   -0.0371 N   0  0  0  0  0  0  0  0  0  0  0  0
    3.6626   -2.0276   -0.0452 N   0  0  0  0  0  0  0  0  0  0  0  0
    3.6977   -0.6787   -0.0384 C   0  0  0  0  0  0  0  0  0  0  0  0
    4.7616   -0.0856   -0.0461 O   0  0  0  0  0  0  0  0  0  0  0  0
    4.9232   -2.7737   -0.0618 C   0  0  0  0  0  0  0  0  0  0  0  0
    5.3696   -3.0372    1.3533 C   0  0  0  0  0  0  0  0  0  0  0  0
    6.2324   -2.2769    2.0618 C   0  0  0  0  0  0  0  0  0  0  0  0
    6.3677   -2.8596    3.2933 N   0  0  0  0  0  0  0  0  0  0  0  0
    7.1001   -2.5275    4.3961 C   0  0  0  0  0  0  0  0  0  0  0  0
    7.0528   -3.2902    5.5080 C   0  0  0  0  0  0  0  0  0  0  0  0
    6.2452   -4.4404    5.5448 C   0  0  0  0  0  0  0  0  0  0  0  0
    5.5093   -4.7823    4.4514 C   0  0  0  0  0  0  0  0  0  0  0  0
    5.5708   -3.9750    3.2985 C   0  0  0  0  0  0  0  0  0  0  0  0
    4.9736   -4.0581    2.1177 N   0  3  0  0  0  0  0  0  0  0  0  0
    6.1869   -5.4200    6.9768 Cl  0  0  0  0  0  0  0  0  0  0  0  0
    0.0356   -2.9595   -0.0143 C   0  0  0  0  0  0  0  0  0  0  0  0
    0.3870   -4.4249   -0.0262 C   0  0  0  0  0  0  0  0  0  0  0  0
    1.5559   -4.7714   -0.0401 O   0  0  0  0  0  0  0  0  0  0  0  0
   -0.4975   -5.2640   -0.0221 O   0  5  0  0  0  0  0  0  0  0  0  0
   -0.9631    1.8823    0.0259 H   0  0  0  0  0  0  0  0  0  0  0  0
    1.1269    3.1717    0.0083 H   0  0  0  0  0  0  0  0  0  0  0  0
    3.3010    2.0277   -0.0197 H   0  0  0  0  0  0  0  0  0  0  0  0
   -0.9242   -0.5594    0.0075 H   0  0  0  0  0  0  0  0  0  0  0  0
    4.7775   -3.7219   -0.5793 H   0  0  0  0  0  0  0  0  0  0  0  0
    5.6841   -2.1901   -0.5800 H   0  0  0  0  0  0  0  0  0  0  0  0
    6.7239   -1.3778    1.7205 H   0  0  0  0  0  0  0  0  0  0  0  0
    7.7238   -1.6459    4.3784 H   0  0  0  0  0  0  0  0  0  0  0  0
    7.6380   -3.0162    6.3733 H   0  0  0  0  0  0  0  0  0  0  0  0
    4.8852   -5.6636    4.4677 H   0  0  0  0  0  0  0  0  0  0  0  0
   -0.5398   -2.7311    0.8829 H   0  0  0  0  0  0  0  0  0  0  0  0
   -0.5578   -2.7210   -0.8970 H   0  0  0  0  0  0  0  0  0  0  0  0
    4.3503   -4.7517    1.8506 H   0  0  0  0  0  0  0  0  0  0  0  0
  1  6  2  0  0  0  0
  1  2  1  0  0  0  0
  1 27  1  0  0  0  0
  2  3  2  0  0  0  0
  2 28  1  0  0  0  0
  3  4  1  0  0  0  0
  3 29  1  0  0  0  0
  4 10  1  0  0  0  0
  4  5  2  0  0  0  0
  5  6  1  0  0  0  0
  5  7  1  0  0  0  0
  6 30  1  0  0  0  0
  7  8  2  0  0  0  0
  7 23  1  0  0  0  0
  8  9  1  0  0  0  0
  9 10  1  0  0  0  0
  9 12  1  0  0  0  0
 10 11  2  0  0  0  0
 12 13  1  0  0  0  0
 12 31  1  0  0  0  0
 12 32  1  0  0  0  0
 13 21  1  0  0  0  0
 13 14  2  0  0  0  0
 14 15  1  0  0  0  0
 14 33  1  0  0  0  0
 15 20  1  0  0  0  0
 15 16  1  0  0  0  0
 16 17  2  0  0  0  0
 16 34  1  0  0  0  0
 17 18  1  0  0  0  0
 17 35  1  0  0  0  0
 18 19  2  0  0  0  0
 18 22  1  0  0  0  0
 19 20  1  0  0  0  0
 19 36  1  0  0  0  0
 20 21  2  0  0  0  0
 21 39  1  0  0  0  0
 23 24  1  0  0  0  0
 23 37  1  0  0  0  0
 23 38  1  0  0  0  0
 24 25  2  0  0  0  0
 24 26  1  0  0  0  0
M  CHG  2  21   1  26  -1
M  END
$$$$
CHEMBL476198
  -OEChem-07121202273D

 33 35  0     0  0  0  0  0  0999 V2000
    0.0402    1.6047    0.1390 C   0  0  0  0  0  0  0  0  0  0  0  0
    1.2406    2.2445   -0.0850 C   0  0  0  0  0  0  0  0  0  0  0  0
    2.4290    1.5222   -0.0642 C   0  0  0  0  0  0  0  0  0  0  0  0
    2.3824    0.1415    0.1905 C   0  0  0  0  0  0  0  0  0  0  0  0
    1.1633   -0.4952    0.4122 C   0  0  0  0  0  0  0  0  0  0  0  0
   -0.0021    0.2406    0.3855 C   0  0  0  0  0  0  0  0  0  0  0  0
   -1.3021   -0.4271    0.6205 N   0  3  0  0  0  0  0  0  0  0  0  0
   -2.3251    0.2167    0.5976 O   0  0  0  0  0  0  0  0  0  0  0  0
   -1.3408   -1.6162    0.8355 O   0  5  0  0  0  0  0  0  0  0  0  0
    3.6566   -0.6054    0.2233 C   0  0  0  0  0  0  0  0  0  0  0  0
    3.6925   -1.8229    0.2121 O   0  0  0  0  0  0  0  0  0  0  0  0
    4.8860    0.2158    0.2703 C   0  0  0  0  0  0  0  0  0  0  0  0
    4.7700    1.5655    0.0116 C   0  0  0  0  0  0  0  0  0  0  0  0
    3.6060    2.1379   -0.2891 O   0  0  0  0  0  0  0  0  0  0  0  0
    6.1861   -0.3857    0.5822 C   0  0  0  0  0  0  0  0  0  0  0  0
    6.9224    0.0885    1.6212 C   0  0  0  0  0  0  0  0  0  0  0  0
    6.5750    1.1017    2.6334 C   0  0  0  0  0  0  0  0  0  0  0  0
    5.4937    1.6612    2.6325 O   0  0  0  0  0  0  0  0  0  0  0  0
    7.4957    1.3729    3.5430 N   0  0  0  0  0  0  0  0  0  0  0  0
    8.6925    0.7509    3.5406 C   0  0  0  0  0  0  0  0  0  0  0  0
    9.6238    0.9008    4.3088 O   0  0  0  0  0  0  0  0  0  0  0  0
    8.5755   -0.3510    2.1405 S   0  0  0  0  0  0  0  0  0  0  0  0
    7.2096    2.3715    4.5761 C   0  0  0  0  0  0  0  0  0  0  0  0
    6.5834    1.6955    5.7685 C   0  0  0  0  0  0  0  0  0  0  0  0
    6.3936    0.4912    5.7565 O   0  0  0  0  0  0  0  0  0  0  0  0
    6.2665    2.3529    6.7452 O   0  5  0  0  0  0  0  0  0  0  0  0
   -0.8779    2.1734    0.1269 H   0  0  0  0  0  0  0  0  0  0  0  0
    1.2582    3.3071   -0.2772 H   0  0  0  0  0  0  0  0  0  0  0  0
    1.1314   -1.5577    0.6028 H   0  0  0  0  0  0  0  0  0  0  0  0
    5.6563    2.1812    0.0545 H   0  0  0  0  0  0  0  0  0  0  0  0
    6.5586   -1.2057   -0.0138 H   0  0  0  0  0  0  0  0  0  0  0  0
    8.1374    2.8567    4.8792 H   0  0  0  0  0  0  0  0  0  0  0  0
    6.5220    3.1182    4.1791 H   0  0  0  0  0  0  0  0  0  0  0  0
  1  6  2  0  0  0  0
  1  2  1  0  0  0  0
  1 27  1  0  0  0  0
  2  3  2  0  0  0  0
  2 28  1  0  0  0  0
  3 14  1  0  0  0  0
  3  4  1  0  0  0  0
  4  5  2  0  0  0  0
  4 10  1  0  0  0  0
  5  6  1  0  0  0  0
  5 29  1  0  0  0  0
  6  7  1  0  0  0  0
  7  8  2  0  0  0  0
  7  9  1  0  0  0  0
 10 11  2  0  0  0  0
 10 12  1  0  0  0  0
 12 13  2  0  0  0  0
 12 15  1  0  0  0  0
 13 14  1  0  0  0  0
 13 30  1  0  0  0  0
 15 16  2  0  0  0  0
 15 31  1  0  0  0  0
 16 22  1  0  0  0  0
 16 17  1  0  0  0  0
 17 18  2  0  0  0  0
 17 19  1  0  0  0  0
 19 20  1  0  0  0  0
 19 23  1  0  0  0  0
 20 21  2  0  0  0  0
 20 22  1  0  0  0  0
 23 24  1  0  0  0  0
 23 32  1  0  0  0  0
 23 33  1  0  0  0  0
 24 25  2  0  0  0  0
 24 26  1  0  0  0  0
M  CHG  3   7   1   9  -1  26  -1
M  END
$$$$
CHEMBL12253
  -OEChem-07121202273D

 23 24  0     0  0  0  0  0  0999 V2000
   -0.0168    1.3891    0.0097 C   0  0  0  0  0  0  0  0  0  0  0  0
    1.1506    2.0964    0.0023 C   0  0  0  0  0  0  0  0  0  0  0  0
    2.3744    1.4182   -0.0129 C   0  0  0  0  0  0  0  0  0  0  0  0
    3.6425    2.1506   -0.0206 C   0  0  0  0  0  0  0  0  0  0  0  0
    4.7970    1.4348   -0.0350 C   0  0  0  0  0  0  0  0  0  0  0  0
    4.7485    0.0256   -0.0421 C   0  0  0  0  0  0  0  0  0  0  0  0
    5.7911   -0.6039   -0.0550 O   0  0  0  0  0  0  0  0  0  0  0  0
    3.5829   -0.6399   -0.0347 O   0  0  0  0  0  0  0  0  0  0  0  0
    2.3999    0.0108   -0.0207 C   0  0  0  0  0  0  0  0  0  0  0  0
    1.2048   -0.6918   -0.0135 C   0  0  0  0  0  0  0  0  0  0  0  0
    0.0021   -0.0041    0.0020 C   0  0  0  0  0  0  0  0  0  0  0  0
   -1.1674   -0.6932    0.0095 O   0  0  0  0  0  0  0  0  0  0  0  0
    3.6661    3.6574   -0.0132 C   0  0  0  0  0  0  0  0  0  0  0  0
    3.5375    4.1687   -1.4249 C   0  0  0  0  0  0  0  0  0  0  0  0
    3.4361    3.3825   -2.3512 O   0  0  0  0  0  0  0  0  0  0  0  0
    3.5349    5.3687   -1.6408 O   0  5  0  0  0  0  0  0  0  0  0  0
   -0.9613    1.9127    0.0260 H   0  0  0  0  0  0  0  0  0  0  0  0
    1.1297    3.1762    0.0079 H   0  0  0  0  0  0  0  0  0  0  0  0
    5.7495    1.9438   -0.0413 H   0  0  0  0  0  0  0  0  0  0  0  0
    1.2112   -1.7718   -0.0196 H   0  0  0  0  0  0  0  0  0  0  0  0
   -1.5147   -0.8881   -0.8717 H   0  0  0  0  0  0  0  0  0  0  0  0
    2.8354    4.0308    0.5856 H   0  0  0  0  0  0  0  0  0  0  0  0
    4.6069    4.0039    0.4145 H   0  0  0  0  0  0  0  0  0  0  0  0
  1 11  2  0  0  0  0
  1  2  1  0  0  0  0
  1 17  1  0  0  0  0
  2  3  2  0  0  0  0
  2 18  1  0  0  0  0
  3  9  1  0  0  0  0
  3  4  1  0  0  0  0
  4  5  2  0  0  0  0
  4 13  1  0  0  0  0
  5  6  1  0  0  0  0
  5 19  1  0  0  0  0
  6  7  2  0  0  0  0
  6  8  1  0  0  0  0
  8  9  1  0  0  0  0
  9 10  2  0  0  0  0
 10 11  1  0  0  0  0
 10 20  1  0  0  0  0
 11 12  1  0  0  0  0
 12 21  1  0  0  0  0
 13 14  1  0  0  0  0
 13 22  1  0  0  0  0
 13 23  1  0  0  0  0
 14 15  2  0  0  0  0
 14 16  1  0  0  0  0
M  CHG  1  16  -1
M  END
$$$$
CHEMBL131150
  -OEChem-07121202273D

 26 28  0     1  0  0  0  0  0999 V2000
   -0.0178    1.4608    0.0101 C   0  0  0  0  0  0  0  0  0  0  0  0
    0.0021   -0.0041    0.0020 N   0  0  0  0  0  0  0  0  0  0  0  0
    0.0052   -0.6503   -1.1740 C   0  0  0  0  0  0  0  0  0  0  0  0
   -0.0108    0.0024   -2.2005 O   0  0  0  0  0  0  0  0  0  0  0  0
    0.0276   -2.1086   -1.2682 C   0  0  0  0  0  0  0  0  0  0  0  0
    0.0377   -2.9773   -2.3381 C   0  0  0  0  0  0  0  0  0  0  0  0
    0.0603   -4.2733   -1.8135 C   0  0  0  0  0  0  0  0  0  0  0  0
    0.0633   -4.1747   -0.4617 C   0  0  0  0  0  0  0  0  0  0  0  0
    0.0432   -2.8732   -0.1169 N   0  0  0  0  0  0  0  0  0  0  0  0
    0.0355   -2.1708    1.1646 C   0  0  2  0  0  0  0  0  0  0  0  0
    0.0222   -0.6667    1.1774 C   0  0  0  0  0  0  0  0  0  0  0  0
    0.0255   -0.0595    2.2268 O   0  0  0  0  0  0  0  0  0  0  0  0
    1.2544   -2.6391    1.9744 C   0  0  0  0  0  0  0  0  0  0  0  0
    0.6234   -3.3498    3.1549 C   0  0  0  0  0  0  0  0  0  0  0  0
    1.2979   -3.9370    4.1550 O   0  5  0  0  0  0  0  0  0  0  0  0
   -0.6725   -3.3025    3.0503 N   0  0  0  0  0  0  0  0  0  0  0  0
   -1.1362   -2.6664    1.9736 C   0  0  0  0  0  0  0  0  0  0  0  0
   -2.3071   -2.5122    1.6918 O   0  0  0  0  0  0  0  0  0  0  0  0
    1.0048    1.8381    0.0023 H   0  0  0  0  0  0  0  0  0  0  0  0
   -0.5450    1.8219   -0.8730 H   0  0  0  0  0  0  0  0  0  0  0  0
   -0.5280    1.8123    0.9069 H   0  0  0  0  0  0  0  0  0  0  0  0
    0.0296   -2.7081   -3.3840 H   0  0  0  0  0  0  0  0  0  0  0  0
    0.0732   -5.1901   -2.3842 H   0  0  0  0  0  0  0  0  0  0  0  0
    0.0789   -5.0059    0.2277 H   0  0  0  0  0  0  0  0  0  0  0  0
    1.8642   -3.3282    1.3901 H   0  0  0  0  0  0  0  0  0  0  0  0
    1.8462   -1.7869    2.3085 H   0  0  0  0  0  0  0  0  0  0  0  0
  1  2  1  0  0  0  0
  1 19  1  0  0  0  0
  1 20  1  0  0  0  0
  1 21  1  0  0  0  0
  2 11  1  0  0  0  0
  2  3  1  0  0  0  0
  3  4  2  0  0  0  0
  3  5  1  0  0  0  0
  5  9  1  0  0  0  0
  5  6  2  0  0  0  0
  6  7  1  0  0  0  0
  6 22  1  0  0  0  0
  7  8  2  0  0  0  0
  7 23  1  0  0  0  0
  8  9  1  0  0  0  0
  8 24  1  0  0  0  0
  9 10  1  0  0  0  0
 10 17  1  0  0  0  0
 10 11  1  0  0  0  0
 10 13  1  0  0  0  0
 11 12  2  0  0  0  0
 13 14  1  0  0  0  0
 13 25  1  0  0  0  0
 13 26  1  0  0  0  0
 14 15  1  0  0  0  0
 14 16  2  0  0  0  0
 16 17  1  0  0  0  0
 17 18  2  0  0  0  0
M  CHG  1  15  -1
M  END
$$$$
CHEMBL131150
  -OEChem-07121202273D

 26 28  0     1  0  0  0  0  0999 V2000
   -0.0178    1.4608    0.0101 C   0  0  0  0  0  0  0  0  0  0  0  0
    0.0021   -0.0041    0.0020 N   0  0  0  0  0  0  0  0  0  0  0  0
    0.0052   -0.6503   -1.1740 C   0  0  0  0  0  0  0  0  0  0  0  0
   -0.0055    0.0025   -2.2005 O   0  0  0  0  0  0  0  0  0  0  0  0
    0.0216   -2.1087   -1.2682 C   0  0  0  0  0  0  0  0  0  0  0  0
    0.0249   -2.9775   -2.3380 C   0  0  0  0  0  0  0  0  0  0  0  0
    0.0424   -4.2736   -1.8134 C   0  0  0  0  0  0  0  0  0  0  0  0
    0.0497   -4.1749   -0.4616 C   0  0  0  0  0  0  0  0  0  0  0  0
    0.0377   -2.8732   -0.1169 N   0  0  0  0  0  0  0  0  0  0  0  0
    0.0394   -2.1707    1.1646 C   0  0  1  0  0  0  0  0  0  0  0  0
    0.0222   -0.6667    1.1774 C   0  0  0  0  0  0  0  0  0  0  0  0
    0.0223   -0.0596    2.2268 O   0  0  0  0  0  0  0  0  0  0  0  0
   -1.1585   -2.6713    1.9863 C   0  0  0  0  0  0  0  0  0  0  0  0
   -0.4971   -3.3648    3.1604 C   0  0  0  0  0  0  0  0  0  0  0  0
   -1.1457   -3.9708    4.1664 O   0  5  0  0  0  0  0  0  0  0  0  0
    0.7960   -3.2829    3.0430 N   0  0  0  0  0  0  0  0  0  0  0  0
    1.2319   -2.6348    1.9618 C   0  0  0  0  0  0  0  0  0  0  0  0
    2.3954   -2.4497    1.6683 O   0  0  0  0  0  0  0  0  0  0  0  0
    1.0048    1.8381    0.0023 H   0  0  0  0  0  0  0  0  0  0  0  0
   -0.5450    1.8219   -0.8730 H   0  0  0  0  0  0  0  0  0  0  0  0
   -0.5280    1.8123    0.9069 H   0  0  0  0  0  0  0  0  0  0  0  0
    0.0156   -2.7082   -3.3839 H   0  0  0  0  0  0  0  0  0  0  0  0
    0.0490   -5.1905   -2.3841 H   0  0  0  0  0  0  0  0  0  0  0  0
    0.0627   -5.0061    0.2278 H   0  0  0  0  0  0  0  0  0  0  0  0
   -1.7695   -1.8352    2.3264 H   0  0  0  0  0  0  0  0  0  0  0  0
   -1.7554   -3.3766    1.4080 H   0  0  0  0  0  0  0  0  0  0  0  0
  1  2  1  0  0  0  0
  1 19  1  0  0  0  0
  1 20  1  0  0  0  0
  1 21  1  0  0  0  0
  2 11  1  0  0  0  0
  2  3  1  0  0  0  0
  3  4  2  0  0  0  0
  3  5  1  0  0  0  0
  5  9  1  0  0  0  0
  5  6  2  0  0  0  0
  6  7  1  0  0  0  0
  6 22  1  0  0  0  0
  7  8  2  0  0  0  0
  7 23  1  0  0  0  0
  8  9  1  0  0  0  0
  8 24  1  0  0  0  0
  9 10  1  0  0  0  0
 10 17  1  0  0  0  0
 10 11  1  0  0  0  0
 10 13  1  0  0  0  0
 11 12  2  0  0  0  0
 13 14  1  0  0  0  0
 13 25  1  0  0  0  0
 13 26  1  0  0  0  0
 14 15  1  0  0  0  0
 14 16  2  0  0  0  0
 16 17  1  0  0  0  0
 17 18  2  0  0  0  0
M  CHG  1  15  -1
M  END
$$$$
CHEMBL197712
  -OEChem-07121202273D

 23 24  0     0  0  0  0  0  0999 V2000
   -0.0167    1.3780    0.0096 C   0  0  0  0  0  0  0  0  0  0  0  0
    1.1705    2.0859    0.0021 C   0  0  0  0  0  0  0  0  0  0  0  0
    2.3784    1.4113   -0.0135 C   0  0  0  0  0  0  0  0  0  0  0  0
    2.3978    0.0281   -0.0210 C   0  0  0  0  0  0  0  0  0  0  0  0
    1.2094   -0.6798   -0.0130 C   0  0  0  0  0  0  0  0  0  0  0  0
    0.0021   -0.0041    0.0020 C   0  0  0  0  0  0  0  0  0  0  0  0
    1.2327   -2.4156   -0.0231 Cl  0  0  0  0  0  0  0  0  0  0  0  0
    3.9357   -0.8316   -0.0415 S   0  0  0  0  0  0  0  0  0  0  0  0
    3.6767   -2.1139   -0.5965 O   0  0  0  0  0  0  0  0  0  0  0  0
    4.8922    0.0601   -0.5974 O   0  0  0  0  0  0  0  0  0  0  0  0
    4.4077   -1.0948    1.6356 C   0  0  0  0  0  0  0  0  0  0  0  0
    4.0074   -2.2469    2.2965 C   0  0  0  0  0  0  0  0  0  0  0  0
    4.4021   -2.4119    3.6156 C   0  0  0  0  0  0  0  0  0  0  0  0
    5.1762   -1.4099    4.1947 C   0  0  0  0  0  0  0  0  0  0  0  0
    5.5095   -0.3444    3.4836 N   0  0  0  0  0  0  0  0  0  0  0  0
    5.1460   -0.1994    2.2612 N   0  0  0  0  0  0  0  0  0  0  0  0
    5.5869   -1.5250    5.4829 O   0  5  0  0  0  0  0  0  0  0  0  0
    3.8693    2.3005   -0.0241 Cl  0  0  0  0  0  0  0  0  0  0  0  0
   -0.9592    1.9050    0.0259 H   0  0  0  0  0  0  0  0  0  0  0  0
    1.1552    3.1657    0.0080 H   0  0  0  0  0  0  0  0  0  0  0  0
   -0.9258   -0.5566    0.0082 H   0  0  0  0  0  0  0  0  0  0  0  0
    3.4059   -2.9930    1.7986 H   0  0  0  0  0  0  0  0  0  0  0  0
    4.1177   -3.2900    4.1764 H   0  0  0  0  0  0  0  0  0  0  0  0
  1  6  2  0  0  0  0
  1  2  1  0  0  0  0
  1 19  1  0  0  0  0
  2  3  2  0  0  0  0
  2 20  1  0  0  0  0
  3  4  1  0  0  0  0
  3 18  1  0  0  0  0
  4  5  2  0  0  0  0
  4  8  1  0  0  0  0
  5  6  1  0  0  0  0
  5  7  1  0  0  0  0
  6 21  1  0  0  0  0
  8  9  2  0  0  0  0
  8 10  2  0  0  0  0
  8 11  1  0  0  0  0
 11 12  2  0  0  0  0
 11 16  1  0  0  0  0
 12 13  1  0  0  0  0
 12 22  1  0  0  0  0
 13 14  2  0  0  0  0
 13 23  1  0  0  0  0
 14 17  1  0  0  0  0
 14 15  1  0  0  0  0
 15 16  2  0  0  0  0
M  CHG  1  17  -1
M  END
$$$$
CHEMBL349508
  -OEChem-07121202273D

 31 32  0     0  0  0  0  0  0999 V2000
   -0.0167    1.3780    0.0096 C   0  0  0  0  0  0  0  0  0  0  0  0
    1.1708    2.0857    0.0021 C   0  0  0  0  0  0  0  0  0  0  0  0
    2.3780    1.4104   -0.0131 C   0  0  0  0  0  0  0  0  0  0  0  0
    2.3961    0.0268   -0.0207 C   0  0  0  0  0  0  0  0  0  0  0  0
    1.2084   -0.6796   -0.0132 C   0  0  0  0  0  0  0  0  0  0  0  0
    0.0021   -0.0041    0.0020 C   0  0  0  0  0  0  0  0  0  0  0  0
   -1.2928   -0.7750    0.0108 C   0  0  0  0  0  0  0  0  0  0  0  0
   -1.7261   -1.0173   -1.3675 N   0  0  0  0  0  0  0  0  0  0  0  0
   -2.5156   -0.1818   -2.0709 C   0  0  0  0  0  0  0  0  0  0  0  0
   -2.9835    0.8722   -1.6968 O   0  0  0  0  0  0  0  0  0  0  0  0
   -2.6962   -0.8335   -3.4276 C   0  0  0  0  0  0  0  0  0  0  0  0
   -1.9141   -2.0773   -3.3210 N   0  0  0  0  0  0  0  0  0  0  0  0
   -1.3823   -2.0928   -2.0854 C   0  0  0  0  0  0  0  0  0  0  0  0
   -0.6717   -2.9855   -1.6668 O   0  0  0  0  0  0  0  0  0  0  0  0
   -1.7448   -3.0965   -4.3596 C   0  0  0  0  0  0  0  0  0  0  0  0
   -0.5369   -2.7643   -5.1973 C   0  0  0  0  0  0  0  0  0  0  0  0
    0.1215   -1.7684   -4.9496 O   0  0  0  0  0  0  0  0  0  0  0  0
   -0.2180   -3.4913   -6.1226 O   0  5  0  0  0  0  0  0  0  0  0  0
    3.6873   -0.6964   -0.0374 N   0  3  0  0  0  0  0  0  0  0  0  0
    3.7030   -1.9053   -0.0441 O   0  0  0  0  0  0  0  0  0  0  0  0
    4.7263   -0.0784   -0.0445 O   0  5  0  0  0  0  0  0  0  0  0  0
    3.8696    2.2984   -0.0231 Cl  0  0  0  0  0  0  0  0  0  0  0  0
   -0.9592    1.9051    0.0260 H   0  0  0  0  0  0  0  0  0  0  0  0
    1.1560    3.1655    0.0077 H   0  0  0  0  0  0  0  0  0  0  0  0
    1.2224   -1.7595   -0.0195 H   0  0  0  0  0  0  0  0  0  0  0  0
   -1.1447   -1.7283    0.5180 H   0  0  0  0  0  0  0  0  0  0  0  0
   -2.0551   -0.1989    0.5353 H   0  0  0  0  0  0  0  0  0  0  0  0
   -3.7477   -1.0560   -3.6092 H   0  0  0  0  0  0  0  0  0  0  0  0
   -2.2965   -0.1955   -4.2158 H   0  0  0  0  0  0  0  0  0  0  0  0
   -1.6060   -4.0716   -3.8926 H   0  0  0  0  0  0  0  0  0  0  0  0
   -2.6312   -3.1201   -4.9935 H   0  0  0  0  0  0  0  0  0  0  0  0
  1  6  2  0  0  0  0
  1  2  1  0  0  0  0
  1 23  1  0  0  0  0
  2  3  2  0  0  0  0
  2 24  1  0  0  0  0
  3  4  1  0  0  0  0
  3 22  1  0  0  0  0
  4  5  2  0  0  0  0
  4 19  1  0  0  0  0
  5  6  1  0  0  0  0
  5 25  1  0  0  0  0
  6  7  1  0  0  0  0
  7  8  1  0  0  0  0
  7 26  1  0  0  0  0
  7 27  1  0  0  0  0
  8 13  1  0  0  0  0
  8  9  1  0  0  0  0
  9 10  2  0  0  0  0
  9 11  1  0  0  0  0
 11 12  1  0  0  0  0
 11 28  1  0  0  0  0
 11 29  1  0  0  0  0
 12 13  1  0  0  0  0
 12 15  1  0  0  0  0
 13 14  2  0  0  0  0
 15 16  1  0  0  0  0
 15 30  1  0  0  0  0
 15 31  1  0  0  0  0
 16 17  2  0  0  0  0
 16 18  1  0  0  0  0
 19 20  2  0  0  0  0
 19 21  1  0  0  0  0
M  CHG  3  18  -1  19   1  21  -1
M  END
$$$$
CHEMBL68586
  -OEChem-07121202273D

 35 36  0     0  0  0  0  0  0999 V2000
   -0.0184    1.5028    0.0103 C   0  0  0  0  0  0  0  0  0  0  0  0
    0.0021   -0.0041    0.0020 C   0  0  0  0  0  0  0  0  0  0  0  0
   -1.1611   -0.7202    0.0036 C   0  0  0  0  0  0  0  0  0  0  0  0
   -1.0673   -2.1287   -0.0045 C   0  0  0  0  0  0  0  0  0  0  0  0
   -2.0773   -2.8141   -0.0038 O   0  0  0  0  0  0  0  0  0  0  0  0
    0.1483   -2.7082   -0.0133 N   0  0  0  0  0  0  0  0  0  0  0  0
    1.2269   -2.0118   -0.0141 N   0  0  0  0  0  0  0  0  0  0  0  0
    1.2177   -0.7077   -0.0134 C   0  0  0  0  0  0  0  0  0  0  0  0
    2.5206    0.0497   -0.0223 C   0  0  0  0  0  0  0  0  0  0  0  0
    3.6688   -0.9262   -0.0384 C   0  0  0  0  0  0  0  0  0  0  0  0
    3.4495   -2.1255   -0.0422 O   0  0  0  0  0  0  0  0  0  0  0  0
    4.8170   -0.5164   -0.0475 O   0  5  0  0  0  0  0  0  0  0  0  0
    0.2424   -4.1702   -0.0216 C   0  0  0  0  0  0  0  0  0  0  0  0
    0.2680   -4.6638   -1.4453 C   0  0  0  0  0  0  0  0  0  0  0  0
   -0.8851   -5.1566   -2.0268 C   0  0  0  0  0  0  0  0  0  0  0  0
   -0.8625   -5.6090   -3.3325 C   0  0  0  0  0  0  0  0  0  0  0  0
    0.3144   -5.5696   -4.0589 C   0  0  0  0  0  0  0  0  0  0  0  0
    1.4689   -5.0775   -3.4788 C   0  0  0  0  0  0  0  0  0  0  0  0
    1.4451   -4.6185   -2.1726 C   0  0  0  0  0  0  0  0  0  0  0  0
    2.5712   -4.1323   -1.6064 F   0  0  0  0  0  0  0  0  0  0  0  0
    0.3440   -6.1896   -5.8452 Br  0  0  0  0  0  0  0  0  0  0  0  0
   -2.5005   -0.0295    0.0141 C   0  0  0  0  0  0  0  0  0  0  0  0
    1.0042    1.8801    0.0026 H   0  0  0  0  0  0  0  0  0  0  0  0
   -0.5455    1.8639   -0.8728 H   0  0  0  0  0  0  0  0  0  0  0  0
   -0.5286    1.8543    0.9071 H   0  0  0  0  0  0  0  0  0  0  0  0
    2.5678    0.6809   -0.9096 H   0  0  0  0  0  0  0  0  0  0  0  0
    2.5851    0.6720    0.8702 H   0  0  0  0  0  0  0  0  0  0  0  0
    1.1562   -4.4784    0.4863 H   0  0  0  0  0  0  0  0  0  0  0  0
   -0.6200   -4.5927    0.4940 H   0  0  0  0  0  0  0  0  0  0  0  0
   -1.8041   -5.1883   -1.4604 H   0  0  0  0  0  0  0  0  0  0  0  0
   -1.7640   -5.9938   -3.7860 H   0  0  0  0  0  0  0  0  0  0  0  0
    2.3878   -5.0474   -4.0454 H   0  0  0  0  0  0  0  0  0  0  0  0
   -2.8284    0.1430   -1.0110 H   0  0  0  0  0  0  0  0  0  0  0  0
   -3.2288   -0.6568    0.5279 H   0  0  0  0  0  0  0  0  0  0  0  0
   -2.4129    0.9251    0.5330 H   0  0  0  0  0  0  0  0  0  0  0  0
  1  2  1  0  0  0  0
  1 23  1  0  0  0  0
  1 24  1  0  0  0  0
  1 25  1  0  0  0  0
  2  8  1  0  0  0  0
  2  3  2  0  0  0  0
  3  4  1  0  0  0  0
  3 22  1  0  0  0  0
  4  5  2  0  0  0  0
  4  6  1  0  0  0  0
  6  7  1  0  0  0  0
  6 13  1  0  0  0  0
  7  8  2  0  0  0  0
  8  9  1  0  0  0  0
  9 10  1  0  0  0  0
  9 26  1  0  0  0  0
  9 27  1  0  0  0  0
 10 11  2  0  0  0  0
 10 12  1  0  0  0  0
 13 14  1  0  0  0  0
 13 28  1  0  0  0  0
 13 29  1  0  0  0  0
 14 19  2  0  0  0  0
 14 15  1  0  0  0  0
 15 16  2  0  0  0  0
 15 30  1  0  0  0  0
 16 17  1  0  0  0  0
 16 31  1  0  0  0  0
 17 18  2  0  0  0  0
 17 21  1  0  0  0  0
 18 19  1  0  0  0  0
 18 32  1  0  0  0  0
 19 20  1  0  0  0  0
 22 33  1  0  0  0  0
 22 34  1  0  0  0  0
 22 35  1  0  0  0  0
M  CHG  1  12  -1
M  END
$$$$
CHEMBL161556
  -OEChem-07121202273D

 32 33  0     0  0  0  0  0  0999 V2000
   -0.0167    1.3780    0.0096 C   0  0  0  0  0  0  0  0  0  0  0  0
    1.1708    2.0857    0.0021 C   0  0  0  0  0  0  0  0  0  0  0  0
    2.3780    1.4104   -0.0131 C   0  0  0  0  0  0  0  0  0  0  0  0
    2.3961    0.0268   -0.0207 C   0  0  0  0  0  0  0  0  0  0  0  0
    1.2084   -0.6796   -0.0132 C   0  0  0  0  0  0  0  0  0  0  0  0
    0.0021   -0.0041    0.0020 C   0  0  0  0  0  0  0  0  0  0  0  0
   -1.2928   -0.7750    0.0108 C   0  0  0  0  0  0  0  0  0  0  0  0
   -1.7261   -1.0173   -1.3675 N   0  0  0  0  0  0  0  0  0  0  0  0
   -2.5183   -0.1210   -1.9898 C   0  0  0  0  0  0  0  0  0  0  0  0
   -2.8754    0.8894   -1.4115 O   0  0  0  0  0  0  0  0  0  0  0  0
   -2.9306   -0.3653   -3.3220 C   0  0  0  0  0  0  0  0  0  0  0  0
   -2.5201   -1.4932   -3.9404 C   0  0  0  0  0  0  0  0  0  0  0  0
   -1.7165   -2.3775   -3.2736 N   0  0  0  0  0  0  0  0  0  0  0  0
   -1.3274   -2.1312   -2.0095 C   0  0  0  0  0  0  0  0  0  0  0  0
   -0.6094   -2.9282   -1.4372 O   0  0  0  0  0  0  0  0  0  0  0  0
   -1.2714   -3.6015   -3.9444 C   0  0  0  0  0  0  0  0  0  0  0  0
    0.0310   -3.3394   -4.6557 C   0  0  0  0  0  0  0  0  0  0  0  0
    0.5403   -2.2327   -4.6070 O   0  0  0  0  0  0  0  0  0  0  0  0
    0.5755   -4.2340   -5.2800 O   0  5  0  0  0  0  0  0  0  0  0  0
    3.6873   -0.6964   -0.0374 N   0  3  0  0  0  0  0  0  0  0  0  0
    3.7030   -1.9053   -0.0441 O   0  0  0  0  0  0  0  0  0  0  0  0
    4.7263   -0.0784   -0.0445 O   0  5  0  0  0  0  0  0  0  0  0  0
    3.8696    2.2984   -0.0231 Cl  0  0  0  0  0  0  0  0  0  0  0  0
   -0.9592    1.9051    0.0260 H   0  0  0  0  0  0  0  0  0  0  0  0
    1.1560    3.1655    0.0077 H   0  0  0  0  0  0  0  0  0  0  0  0
    1.2224   -1.7595   -0.0195 H   0  0  0  0  0  0  0  0  0  0  0  0
   -1.1447   -1.7283    0.5180 H   0  0  0  0  0  0  0  0  0  0  0  0
   -2.0551   -0.1989    0.5353 H   0  0  0  0  0  0  0  0  0  0  0  0
   -3.5653    0.3409   -3.8366 H   0  0  0  0  0  0  0  0  0  0  0  0
   -2.8248   -1.6966   -4.9564 H   0  0  0  0  0  0  0  0  0  0  0  0
   -1.1293   -4.3898   -3.2051 H   0  0  0  0  0  0  0  0  0  0  0  0
   -2.0243   -3.9136   -4.6681 H   0  0  0  0  0  0  0  0  0  0  0  0
  1  6  2  0  0  0  0
  1  2  1  0  0  0  0
  1 24  1  0  0  0  0
  2  3  2  0  0  0  0
  2 25  1  0  0  0  0
  3  4  1  0  0  0  0
  3 23  1  0  0  0  0
  4  5  2  0  0  0  0
  4 20  1  0  0  0  0
  5  6  1  0  0  0  0
  5 26  1  0  0  0  0
  6  7  1  0  0  0  0
  7  8  1  0  0  0  0
  7 27  1  0  0  0  0
  7 28  1  0  0  0  0
  8 14  1  0  0  0  0
  8  9  1  0  0  0  0
  9 10  2  0  0  0  0
  9 11  1  0  0  0  0
 11 12  2  0  0  0  0
 11 29  1  0  0  0  0
 12 13  1  0  0  0  0
 12 30  1  0  0  0  0
 13 14  1  0  0  0  0
 13 16  1  0  0  0  0
 14 15  2  0  0  0  0
 16 17  1  0  0  0  0
 16 31  1  0  0  0  0
 16 32  1  0  0  0  0
 17 18  2  0  0  0  0
 17 19  1  0  0  0  0
 20 21  2  0  0  0  0
 20 22  1  0  0  0  0
M  CHG  3  19  -1  20   1  22  -1
M  END
$$$$
CHEMBL143234
  -OEChem-07121202273D

 37 40  0     0  0  0  0  0  0999 V2000
   -0.0165    1.3627    0.0095 C   0  0  0  0  0  0  0  0  0  0  0  0
    1.1654    2.0924    0.0022 C   0  0  0  0  0  0  0  0  0  0  0  0
    2.3861    1.4540   -0.0134 C   0  0  0  0  0  0  0  0  0  0  0  0
    2.4294    0.0605   -0.0213 C   0  0  0  0  0  0  0  0  0  0  0  0
    1.2244   -0.6786   -0.0133 C   0  0  0  0  0  0  0  0  0  0  0  0
    0.0021   -0.0041    0.0020 C   0  0  0  0  0  0  0  0  0  0  0  0
    1.3000   -2.1396   -0.0224 C   0  0  0  0  0  0  0  0  0  0  0  0
    2.4575   -2.7306   -0.0371 N   0  0  0  0  0  0  0  0  0  0  0  0
    3.6626   -2.0276   -0.0452 N   0  0  0  0  0  0  0  0  0  0  0  0
    3.6977   -0.6787   -0.0384 C   0  0  0  0  0  0  0  0  0  0  0  0
    4.7616   -0.0856   -0.0461 O   0  0  0  0  0  0  0  0  0  0  0  0
    4.9232   -2.7737   -0.0618 C   0  0  0  0  0  0  0  0  0  0  0  0
    5.3696   -3.0372    1.3533 C   0  0  0  0  0  0  0  0  0  0  0  0
    5.0512   -4.0871    2.0491 N   0  0  0  0  0  0  0  0  0  0  0  0
    5.6291   -3.9914    3.2771 C   0  0  0  0  0  0  0  0  0  0  0  0
    5.6317   -4.8085    4.4096 C   0  0  0  0  0  0  0  0  0  0  0  0
    6.3340   -4.4214    5.5311 C   0  0  0  0  0  0  0  0  0  0  0  0
    7.0380   -3.2239    5.5407 C   0  0  0  0  0  0  0  0  0  0  0  0
    7.0434   -2.4070    4.4274 C   0  0  0  0  0  0  0  0  0  0  0  0
    6.3412   -2.7835    3.2900 C   0  0  0  0  0  0  0  0  0  0  0  0
    6.1577   -2.2237    2.0732 O   0  0  0  0  0  0  0  0  0  0  0  0
    7.7301   -1.2437    4.4447 F   0  0  0  0  0  0  0  0  0  0  0  0
    6.3372   -5.2110    6.6272 F   0  0  0  0  0  0  0  0  0  0  0  0
    0.0356   -2.9595   -0.0143 C   0  0  0  0  0  0  0  0  0  0  0  0
    0.3870   -4.4249   -0.0262 C   0  0  0  0  0  0  0  0  0  0  0  0
    1.5559   -4.7714   -0.0401 O   0  0  0  0  0  0  0  0  0  0  0  0
   -0.4975   -5.2640   -0.0221 O   0  5  0  0  0  0  0  0  0  0  0  0
   -0.9631    1.8823    0.0259 H   0  0  0  0  0  0  0  0  0  0  0  0
    1.1269    3.1717    0.0083 H   0  0  0  0  0  0  0  0  0  0  0  0
    3.3010    2.0277   -0.0197 H   0  0  0  0  0  0  0  0  0  0  0  0
   -0.9242   -0.5594    0.0075 H   0  0  0  0  0  0  0  0  0  0  0  0
    4.7775   -3.7219   -0.5793 H   0  0  0  0  0  0  0  0  0  0  0  0
    5.6841   -2.1901   -0.5800 H   0  0  0  0  0  0  0  0  0  0  0  0
    5.0853   -5.7401    4.4071 H   0  0  0  0  0  0  0  0  0  0  0  0
    7.5842   -2.9297    6.4247 H   0  0  0  0  0  0  0  0  0  0  0  0
   -0.5398   -2.7311    0.8829 H   0  0  0  0  0  0  0  0  0  0  0  0
   -0.5578   -2.7210   -0.8970 H   0  0  0  0  0  0  0  0  0  0  0  0
  1  6  2  0  0  0  0
  1  2  1  0  0  0  0
  1 28  1  0  0  0  0
  2  3  2  0  0  0  0
  2 29  1  0  0  0  0
  3  4  1  0  0  0  0
  3 30  1  0  0  0  0
  4 10  1  0  0  0  0
  4  5  2  0  0  0  0
  5  6  1  0  0  0  0
  5  7  1  0  0  0  0
  6 31  1  0  0  0  0
  7  8  2  0  0  0  0
  7 24  1  0  0  0  0
  8  9  1  0  0  0  0
  9 10  1  0  0  0  0
  9 12  1  0  0  0  0
 10 11  2  0  0  0  0
 12 13  1  0  0  0  0
 12 32  1  0  0  0  0
 12 33  1  0  0  0  0
 13 21  1  0  0  0  0
 13 14  2  0  0  0  0
 14 15  1  0  0  0  0
 15 20  2  0  0  0  0
 15 16  1  0  0  0  0
 16 17  2  0  0  0  0
 16 34  1  0  0  0  0
 17 18  1  0  0  0  0
 17 23  1  0  0  0  0
 18 19  2  0  0  0  0
 18 35  1  0  0  0  0
 19 20  1  0  0  0  0
 19 22  1  0  0  0  0
 20 21  1  0  0  0  0
 24 25  1  0  0  0  0
 24 36  1  0  0  0  0
 24 37  1  0  0  0  0
 25 26  2  0  0  0  0
 25 27  1  0  0  0  0
M  CHG  1  27  -1
M  END
$$$$
CHEMBL6944
  -OEChem-07121202273D

 30 31  0     0  0  0  0  0  0999 V2000
   -0.0187    1.5258    0.0104 C   0  0  0  0  0  0  0  0  0  0  0  0
    0.0021   -0.0041    0.0020 C   0  0  0  0  0  0  0  0  0  0  0  0
    0.6932   -0.4774    1.1597 O   0  0  0  0  0  0  0  0  0  0  0  0
    0.8011   -1.8139    1.3045 C   0  0  0  0  0  0  0  0  0  0  0  0
    0.3213   -2.5564    0.4702 O   0  0  0  0  0  0  0  0  0  0  0  0
    1.4972   -2.3713    2.4682 C   0  0  0  0  0  0  0  0  0  0  0  0
    1.6879   -3.6815    2.7423 C   0  0  0  0  0  0  0  0  0  0  0  0
    2.4369   -3.8087    4.0110 C   0  0  0  0  0  0  0  0  0  0  0  0
    2.7637   -4.8596    4.5257 O   0  0  0  0  0  0  0  0  0  0  0  0
    2.7034   -2.5883    4.5107 N   0  0  0  0  0  0  0  0  0  0  0  0
    2.1453   -1.5921    3.5887 C   0  0  0  0  0  0  0  0  0  0  0  0
    3.4272   -2.3040    5.7523 C   0  0  0  0  0  0  0  0  0  0  0  0
    4.8998   -2.1784    5.4578 C   0  0  0  0  0  0  0  0  0  0  0  0
    5.6137   -1.0736    5.1306 C   0  0  0  0  0  0  0  0  0  0  0  0
    6.9714   -1.1962    4.9019 C   0  0  0  0  0  0  0  0  0  0  0  0
    7.5488   -2.4176    5.0116 C   0  0  0  0  0  0  0  0  0  0  0  0
    6.1582   -3.4448    5.4569 S   0  0  0  0  0  0  0  0  0  0  0  0
    1.2608   -4.7124    1.9775 O   0  5  0  0  0  0  0  0  0  0  0  0
    1.0039    1.9031    0.0027 H   0  0  0  0  0  0  0  0  0  0  0  0
   -0.5459    1.8868   -0.8726 H   0  0  0  0  0  0  0  0  0  0  0  0
   -0.5289    1.8773    0.9072 H   0  0  0  0  0  0  0  0  0  0  0  0
   -1.0205   -0.3814    0.0098 H   0  0  0  0  0  0  0  0  0  0  0  0
    0.5123   -0.3556   -0.8948 H   0  0  0  0  0  0  0  0  0  0  0  0
    2.9390   -0.9579    3.1938 H   0  0  0  0  0  0  0  0  0  0  0  0
    1.4003   -0.9847    4.1026 H   0  0  0  0  0  0  0  0  0  0  0  0
    3.0615   -1.3708    6.1806 H   0  0  0  0  0  0  0  0  0  0  0  0
    3.2664   -3.1166    6.4608 H   0  0  0  0  0  0  0  0  0  0  0  0
    5.1289   -0.1120    5.0494 H   0  0  0  0  0  0  0  0  0  0  0  0
    7.5632   -0.3318    4.6394 H   0  0  0  0  0  0  0  0  0  0  0  0
    8.5826   -2.6963    4.8703 H   0  0  0  0  0  0  0  0  0  0  0  0
  1  2  1  0  0  0  0
  1 19  1  0  0  0  0
  1 20  1  0  0  0  0
  1 21  1  0  0  0  0
  2  3  1  0  0  0  0
  2 22  1  0  0  0  0
  2 23  1  0  0  0  0
  3  4  1  0  0  0  0
  4  5  2  0  0  0  0
  4  6  1  0  0  0  0
  6 11  1  0  0  0  0
  6  7  2  0  0  0  0
  7  8  1  0  0  0  0
  7 18  1  0  0  0  0
  8  9  2  0  0  0  0
  8 10  1  0  0  0  0
 10 11  1  0  0  0  0
 10 12  1  0  0  0  0
 11 24  1  0  0  0  0
 11 25  1  0  0  0  0
 12 13  1  0  0  0  0
 12 26  1  0  0  0  0
 12 27  1  0  0  0  0
 13 17  1  0  0  0  0
 13 14  2  0  0  0  0
 14 15  1  0  0  0  0
 14 28  1  0  0  0  0
 15 16  2  0  0  0  0
 15 29  1  0  0  0  0
 16 17  1  0  0  0  0
 16 30  1  0  0  0  0
M  CHG  1  18  -1
M  END
$$$$
CHEMBL69907
  -OEChem-07121202273D

 35 38  0     0  0  0  0  0  0999 V2000
   -0.0166    1.3726    0.0096 C   0  0  0  0  0  0  0  0  0  0  0  0
    1.1699    2.0913    0.0021 C   0  0  0  0  0  0  0  0  0  0  0  0
    2.3838    1.4370   -0.0134 C   0  0  0  0  0  0  0  0  0  0  0  0
    2.4213    0.0508   -0.0212 C   0  0  0  0  0  0  0  0  0  0  0  0
    1.2234   -0.6797   -0.0132 C   0  0  0  0  0  0  0  0  0  0  0  0
    0.0021   -0.0041    0.0020 C   0  0  0  0  0  0  0  0  0  0  0  0
    1.5722   -1.9948   -0.0236 N   0  0  0  0  0  0  0  0  0  0  0  0
    2.8682   -2.0841   -0.0370 C   0  0  0  0  0  0  0  0  0  0  0  0
    3.4191   -0.8601   -0.0359 O   0  0  0  0  0  0  0  0  0  0  0  0
    3.6423   -3.3770   -0.0515 C   0  0  0  0  0  0  0  0  0  0  0  0
    3.8794   -3.7886   -1.4374 N   0  0  0  0  0  0  0  0  0  0  0  0
    3.0477   -4.5812   -2.1851 C   0  0  0  0  0  0  0  0  0  0  0  0
    1.8284   -5.2061   -1.9346 C   0  0  0  0  0  0  0  0  0  0  0  0
    1.2320   -5.9505   -2.9123 C   0  0  0  0  0  0  0  0  0  0  0  0
    1.8277   -6.0947   -4.1606 C   0  0  0  0  0  0  0  0  0  0  0  0
    3.0228   -5.4934   -4.4343 C   0  0  0  0  0  0  0  0  0  0  0  0
    3.6526   -4.7253   -3.4484 C   0  0  0  0  0  0  0  0  0  0  0  0
    4.8970   -3.9648   -3.3964 C   0  0  0  0  0  0  0  0  0  0  0  0
    4.9879   -3.4309   -2.2118 N   0  0  0  0  0  0  0  0  0  0  0  0
    5.8956   -3.8183   -4.5155 C   0  0  0  0  0  0  0  0  0  0  0  0
    5.5418   -2.6144   -5.3500 C   0  0  0  0  0  0  0  0  0  0  0  0
    4.5690   -1.9380   -5.0627 O   0  0  0  0  0  0  0  0  0  0  0  0
    6.2284   -2.3167   -6.3125 O   0  5  0  0  0  0  0  0  0  0  0  0
    1.0450   -7.0484   -5.3819 Cl  0  0  0  0  0  0  0  0  0  0  0  0
   -0.9610    1.8963    0.0259 H   0  0  0  0  0  0  0  0  0  0  0  0
    1.1428    3.1709    0.0081 H   0  0  0  0  0  0  0  0  0  0  0  0
    3.3035    2.0032   -0.0199 H   0  0  0  0  0  0  0  0  0  0  0  0
   -0.9245   -0.5589    0.0075 H   0  0  0  0  0  0  0  0  0  0  0  0
    4.5975   -3.2342    0.4536 H   0  0  0  0  0  0  0  0  0  0  0  0
    3.0705   -4.1487    0.4639 H   0  0  0  0  0  0  0  0  0  0  0  0
    1.3556   -5.1026   -0.9691 H   0  0  0  0  0  0  0  0  0  0  0  0
    0.2866   -6.4332   -2.7133 H   0  0  0  0  0  0  0  0  0  0  0  0
    3.4794   -5.6100   -5.4061 H   0  0  0  0  0  0  0  0  0  0  0  0
    6.8939   -3.6898   -4.0971 H   0  0  0  0  0  0  0  0  0  0  0  0
    5.8755   -4.7117   -5.1396 H   0  0  0  0  0  0  0  0  0  0  0  0
  1  6  2  0  0  0  0
  1  2  1  0  0  0  0
  1 25  1  0  0  0  0
  2  3  2  0  0  0  0
  2 26  1  0  0  0  0
  3  4  1  0  0  0  0
  3 27  1  0  0  0  0
  4  9  1  0  0  0  0
  4  5  2  0  0  0  0
  5  6  1  0  0  0  0
  5  7  1  0  0  0  0
  6 28  1  0  0  0  0
  7  8  2  0  0  0  0
  8  9  1  0  0  0  0
  8 10  1  0  0  0  0
 10 11  1  0  0  0  0
 10 29  1  0  0  0  0
 10 30  1  0  0  0  0
 11 19  1  0  0  0  0
 11 12  1  0  0  0  0
 12 17  2  0  0  0  0
 12 13  1  0  0  0  0
 13 14  2  0  0  0  0
 13 31  1  0  0  0  0
 14 15  1  0  0  0  0
 14 32  1  0  0  0  0
 15 16  2  0  0  0  0
 15 24  1  0  0  0  0
 16 17  1  0  0  0  0
 16 33  1  0  0  0  0
 17 18  1  0  0  0  0
 18 19  2  0  0  0  0
 18 20  1  0  0  0  0
 20 21  1  0  0  0  0
 20 34  1  0  0  0  0
 20 35  1  0  0  0  0
 21 22  2  0  0  0  0
 21 23  1  0  0  0  0
M  CHG  1  23  -1
M  END
$$$$
CHEMBL73505
  -OEChem-07121202273D

 35 38  0     0  0  0  0  0  0999 V2000
   -0.0168    1.3855    0.0097 C   0  0  0  0  0  0  0  0  0  0  0  0
    1.1767    2.0828    0.0020 C   0  0  0  0  0  0  0  0  0  0  0  0
    2.3634    1.3919   -0.0130 C   0  0  0  0  0  0  0  0  0  0  0  0
    2.4181   -0.0203   -0.0211 C   0  0  0  0  0  0  0  0  0  0  0  0
    1.1841   -0.7033   -0.0123 C   0  0  0  0  0  0  0  0  0  0  0  0
    0.0021   -0.0041    0.0020 C   0  0  0  0  0  0  0  0  0  0  0  0
   -1.1669   -0.6813    0.0095 F   0  0  0  0  0  0  0  0  0  0  0  0
    3.6759   -0.5077   -0.0365 N   0  0  0  0  0  0  0  0  0  0  0  0
    4.7200    0.2686   -0.0429 C   0  0  0  0  0  0  0  0  0  0  0  0
    4.0833    1.8265   -0.0281 S   0  0  0  0  0  0  0  0  0  0  0  0
    6.1717   -0.1358   -0.0597 C   0  0  0  0  0  0  0  0  0  0  0  0
    6.6281   -0.2595   -1.4463 N   0  0  0  0  0  0  0  0  0  0  0  0
    6.5712   -1.4007   -2.2036 C   0  0  0  0  0  0  0  0  0  0  0  0
    6.1171   -2.6955   -1.9641 C   0  0  0  0  0  0  0  0  0  0  0  0
    6.1979   -3.6378   -2.9496 C   0  0  0  0  0  0  0  0  0  0  0  0
    6.7302   -3.3219   -4.1949 C   0  0  0  0  0  0  0  0  0  0  0  0
    7.1830   -2.0607   -4.4578 C   0  0  0  0  0  0  0  0  0  0  0  0
    7.1101   -1.0782   -3.4638 C   0  0  0  0  0  0  0  0  0  0  0  0
    7.4888    0.3296   -3.3998 C   0  0  0  0  0  0  0  0  0  0  0  0
    7.1863    0.7695   -2.2118 N   0  0  0  0  0  0  0  0  0  0  0  0
    8.1129    1.1327   -4.5118 C   0  0  0  0  0  0  0  0  0  0  0  0
    7.0280    1.7691   -5.3419 C   0  0  0  0  0  0  0  0  0  0  0  0
    5.8566    1.5874   -5.0569 O   0  0  0  0  0  0  0  0  0  0  0  0
    7.3218    2.4657   -6.2984 O   0  5  0  0  0  0  0  0  0  0  0  0
    6.8202   -4.5422   -5.4264 Cl  0  0  0  0  0  0  0  0  0  0  0  0
   -0.9570    1.9167    0.0260 H   0  0  0  0  0  0  0  0  0  0  0  0
    1.1759    3.1627    0.0075 H   0  0  0  0  0  0  0  0  0  0  0  0
    1.1685   -1.7832   -0.0183 H   0  0  0  0  0  0  0  0  0  0  0  0
    6.7657    0.6212    0.4522 H   0  0  0  0  0  0  0  0  0  0  0  0
    6.2880   -1.0934    0.4479 H   0  0  0  0  0  0  0  0  0  0  0  0
    5.7023   -2.9540   -1.0011 H   0  0  0  0  0  0  0  0  0  0  0  0
    5.8445   -4.6404   -2.7592 H   0  0  0  0  0  0  0  0  0  0  0  0
    7.5951   -1.8228   -5.4273 H   0  0  0  0  0  0  0  0  0  0  0  0
    8.7481    1.9098   -4.0865 H   0  0  0  0  0  0  0  0  0  0  0  0
    8.7140    0.4762   -5.1410 H   0  0  0  0  0  0  0  0  0  0  0  0
  1  6  2  0  0  0  0
  1  2  1  0  0  0  0
  1 26  1  0  0  0  0
  2  3  2  0  0  0  0
  2 27  1  0  0  0  0
  3 10  1  0  0  0  0
  3  4  1  0  0  0  0
  4  5  2  0  0  0  0
  4  8  1  0  0  0  0
  5  6  1  0  0  0  0
  5 28  1  0  0  0  0
  6  7  1  0  0  0  0
  8  9  2  0  0  0  0
  9 10  1  0  0  0  0
  9 11  1  0  0  0  0
 11 12  1  0  0  0  0
 11 29  1  0  0  0  0
 11 30  1  0  0  0  0
 12 20  1  0  0  0  0
 12 13  1  0  0  0  0
 13 18  2  0  0  0  0
 13 14  1  0  0  0  0
 14 15  2  0  0  0  0
 14 31  1  0  0  0  0
 15 16  1  0  0  0  0
 15 32  1  0  0  0  0
 16 17  2  0  0  0  0
 16 25  1  0  0  0  0
 17 18  1  0  0  0  0
 17 33  1  0  0  0  0
 18 19  1  0  0  0  0
 19 20  2  0  0  0  0
 19 21  1  0  0  0  0
 21 22  1  0  0  0  0
 21 34  1  0  0  0  0
 21 35  1  0  0  0  0
 22 23  2  0  0  0  0
 22 24  1  0  0  0  0
M  CHG  1  24  -1
M  END
$$$$
CHEMBL143551
  -OEChem-07121202273D

 38 41  0     0  0  0  0  0  0999 V2000
   -0.0165    1.3627    0.0095 C   0  0  0  0  0  0  0  0  0  0  0  0
    1.1654    2.0924    0.0022 C   0  0  0  0  0  0  0  0  0  0  0  0
    2.3861    1.4540   -0.0134 C   0  0  0  0  0  0  0  0  0  0  0  0
    2.4294    0.0605   -0.0213 C   0  0  0  0  0  0  0  0  0  0  0  0
    1.2244   -0.6786   -0.0133 C   0  0  0  0  0  0  0  0  0  0  0  0
    0.0021   -0.0041    0.0020 C   0  0  0  0  0  0  0  0  0  0  0  0
    1.3000   -2.1396   -0.0224 C   0  0  0  0  0  0  0  0  0  0  0  0
    2.4575   -2.7306   -0.0371 N   0  0  0  0  0  0  0  0  0  0  0  0
    3.6626   -2.0276   -0.0452 N   0  0  0  0  0  0  0  0  0  0  0  0
    3.6977   -0.6787   -0.0384 C   0  0  0  0  0  0  0  0  0  0  0  0
    4.7616   -0.0856   -0.0461 O   0  0  0  0  0  0  0  0  0  0  0  0
    4.9232   -2.7737   -0.0618 C   0  0  0  0  0  0  0  0  0  0  0  0
    5.3696   -3.0372    1.3533 C   0  0  0  0  0  0  0  0  0  0  0  0
    5.0416   -4.1194    2.0722 C   0  0  0  0  0  0  0  0  0  0  0  0
    5.6923   -3.9560    3.3777 C   0  0  0  0  0  0  0  0  0  0  0  0
    5.7417   -4.7184    4.5440 C   0  0  0  0  0  0  0  0  0  0  0  0
    6.4671   -4.2639    5.6241 C   0  0  0  0  0  0  0  0  0  0  0  0
    7.1446   -3.0538    5.5525 C   0  0  0  0  0  0  0  0  0  0  0  0
    7.1027   -2.2914    4.4053 C   0  0  0  0  0  0  0  0  0  0  0  0
    6.3780   -2.7321    3.3050 C   0  0  0  0  0  0  0  0  0  0  0  0
    6.1593   -2.2234    2.0754 O   0  0  0  0  0  0  0  0  0  0  0  0
    6.5336   -5.2073    7.0799 Cl  0  0  0  0  0  0  0  0  0  0  0  0
    0.0356   -2.9595   -0.0143 C   0  0  0  0  0  0  0  0  0  0  0  0
    0.3870   -4.4249   -0.0262 C   0  0  0  0  0  0  0  0  0  0  0  0
    1.5559   -4.7714   -0.0401 O   0  0  0  0  0  0  0  0  0  0  0  0
   -0.4975   -5.2640   -0.0221 O   0  5  0  0  0  0  0  0  0  0  0  0
   -0.9631    1.8823    0.0259 H   0  0  0  0  0  0  0  0  0  0  0  0
    1.1269    3.1717    0.0083 H   0  0  0  0  0  0  0  0  0  0  0  0
    3.3010    2.0277   -0.0197 H   0  0  0  0  0  0  0  0  0  0  0  0
   -0.9242   -0.5594    0.0075 H   0  0  0  0  0  0  0  0  0  0  0  0
    4.7775   -3.7219   -0.5793 H   0  0  0  0  0  0  0  0  0  0  0  0
    5.6841   -2.1901   -0.5800 H   0  0  0  0  0  0  0  0  0  0  0  0
    4.4226   -4.9456    1.7550 H   0  0  0  0  0  0  0  0  0  0  0  0
    5.2145   -5.6593    4.6007 H   0  0  0  0  0  0  0  0  0  0  0  0
    7.7098   -2.7065    6.4047 H   0  0  0  0  0  0  0  0  0  0  0  0
    7.6331   -1.3516    4.3616 H   0  0  0  0  0  0  0  0  0  0  0  0
   -0.5398   -2.7311    0.8829 H   0  0  0  0  0  0  0  0  0  0  0  0
   -0.5578   -2.7210   -0.8970 H   0  0  0  0  0  0  0  0  0  0  0  0
  1  6  2  0  0  0  0
  1  2  1  0  0  0  0
  1 27  1  0  0  0  0
  2  3  2  0  0  0  0
  2 28  1  0  0  0  0
  3  4  1  0  0  0  0
  3 29  1  0  0  0  0
  4 10  1  0  0  0  0
  4  5  2  0  0  0  0
  5  6  1  0  0  0  0
  5  7  1  0  0  0  0
  6 30  1  0  0  0  0
  7  8  2  0  0  0  0
  7 23  1  0  0  0  0
  8  9  1  0  0  0  0
  9 10  1  0  0  0  0
  9 12  1  0  0  0  0
 10 11  2  0  0  0  0
 12 13  1  0  0  0  0
 12 31  1  0  0  0  0
 12 32  1  0  0  0  0
 13 21  1  0  0  0  0
 13 14  2  0  0  0  0
 14 15  1  0  0  0  0
 14 33  1  0  0  0  0
 15 20  2  0  0  0  0
 15 16  1  0  0  0  0
 16 17  2  0  0  0  0
 16 34  1  0  0  0  0
 17 18  1  0  0  0  0
 17 22  1  0  0  0  0
 18 19  2  0  0  0  0
 18 35  1  0  0  0  0
 19 20  1  0  0  0  0
 19 36  1  0  0  0  0
 20 21  1  0  0  0  0
 23 24  1  0  0  0  0
 23 37  1  0  0  0  0
 23 38  1  0  0  0  0
 24 25  2  0  0  0  0
 24 26  1  0  0  0  0
M  CHG  1  26  -1
M  END
$$$$
CHEMBL56453
  -OEChem-07121202273D

 28 30  0     1  0  0  0  0  0999 V2000
   -0.0187    1.5258    0.0104 C   0  0  0  0  0  0  0  0  0  0  0  0
    0.0021   -0.0041    0.0020 C   0  0  2  0  0  0  0  0  0  0  0  0
    0.5118   -0.3583   -0.8939 H   0  0  0  0  0  0  0  0  0  0  0  0
   -1.4364   -0.5393    0.0224 C   0  0  0  0  0  0  0  0  0  0  0  0
   -1.3817   -2.0616   -0.0704 C   0  0  2  0  0  0  0  0  0  0  0  0
   -0.3650   -2.6147    0.8863 C   0  0  0  0  0  0  0  0  0  0  0  0
   -0.4043   -3.9599    1.2172 C   0  0  0  0  0  0  0  0  0  0  0  0
    0.5457   -4.4568    2.0987 C   0  0  0  0  0  0  0  0  0  0  0  0
    1.4967   -3.5972    2.6152 C   0  0  0  0  0  0  0  0  0  0  0  0
    1.5054   -2.3224    2.2828 N   0  0  0  0  0  0  0  0  0  0  0  0
    0.6134   -1.8069    1.4458 C   0  0  0  0  0  0  0  0  0  0  0  0
    0.6844   -0.4808    1.1621 O   0  0  0  0  0  0  0  0  0  0  0  0
    0.5391   -6.1340    2.5465 Cl  0  0  0  0  0  0  0  0  0  0  0  0
   -1.0642   -2.4907   -1.4844 C   0  0  0  0  0  0  0  0  0  0  0  0
   -0.0639   -2.2380   -2.1211 O   0  0  0  0  0  0  0  0  0  0  0  0
   -2.1288   -3.2142   -1.8887 N   0  0  0  0  0  0  0  0  0  0  0  0
   -3.0609   -3.2968   -0.9314 C   0  0  0  0  0  0  0  0  0  0  0  0
   -4.1101   -3.8967   -1.0595 O   0  0  0  0  0  0  0  0  0  0  0  0
   -2.7053   -2.6407    0.1899 N   0  0  0  0  0  0  0  0  0  0  0  0
    1.0039    1.9031    0.0027 H   0  0  0  0  0  0  0  0  0  0  0  0
   -0.5459    1.8868   -0.8726 H   0  0  0  0  0  0  0  0  0  0  0  0
   -0.5289    1.8773    0.9072 H   0  0  0  0  0  0  0  0  0  0  0  0
   -1.9249   -0.2450    0.9513 H   0  0  0  0  0  0  0  0  0  0  0  0
   -1.9895   -0.1389   -0.8272 H   0  0  0  0  0  0  0  0  0  0  0  0
   -1.1592   -4.6085    0.7979 H   0  0  0  0  0  0  0  0  0  0  0  0
    2.2415   -3.9750    3.3000 H   0  0  0  0  0  0  0  0  0  0  0  0
   -2.2088   -3.6238   -2.7643 H   0  0  0  0  0  0  0  0  0  0  0  0
   -3.2215   -2.5659    1.0077 H   0  0  0  0  0  0  0  0  0  0  0  0
  1  2  1  0  0  0  0
  1 20  1  0  0  0  0
  1 21  1  0  0  0  0
  1 22  1  0  0  0  0
  2  3  1  0  0  0  0
  2 12  1  0  0  0  0
  2  4  1  0  0  0  0
  4  5  1  0  0  0  0
  4 23  1  0  0  0  0
  4 24  1  0  0  0  0
  5 19  1  0  0  0  0
  5  6  1  0  0  0  0
  5 14  1  0  0  0  0
  6 11  2  0  0  0  0
  6  7  1  0  0  0  0
  7  8  2  0  0  0  0
  7 25  1  0  0  0  0
  8  9  1  0  0  0  0
  8 13  1  0  0  0  0
  9 10  2  0  0  0  0
  9 26  1  0  0  0  0
 10 11  1  0  0  0  0
 11 12  1  0  0  0  0
 14 15  2  0  0  0  0
 14 16  1  0  0  0  0
 16 17  1  0  0  0  0
 16 27  1  0  0  0  0
 17 18  2  0  0  0  0
 17 19  1  0  0  0  0
 19 28  1  0  0  0  0
M  END
$$$$
CHEMBL79198
  -OEChem-07121202273D

 25 27  0     1  0  0  0  0  0999 V2000
   -0.0167    1.3792    0.0096 C   0  0  0  0  0  0  0  0  0  0  0  0
    1.1698    2.0842    0.0021 C   0  0  0  0  0  0  0  0  0  0  0  0
    2.3854    1.4092   -0.0128 C   0  0  0  0  0  0  0  0  0  0  0  0
    2.4020    0.0239   -0.0174 C   0  0  0  0  0  0  0  0  0  0  0  0
    1.2089   -0.6783   -0.0113 C   0  0  0  0  0  0  0  0  0  0  0  0
    0.0021   -0.0041    0.0020 C   0  0  0  0  0  0  0  0  0  0  0  0
   -1.4892   -0.8928    0.0097 Cl  0  0  0  0  0  0  0  0  0  0  0  0
    3.6981   -0.7382   -0.0241 C   0  0  1  0  0  0  0  0  0  0  0  0
    4.8530    0.1683   -0.4413 C   0  0  0  0  0  0  0  0  0  0  0  0
    4.7463    1.4806    0.3474 C   0  0  0  0  0  0  0  0  0  0  0  0
    3.5334    2.1354   -0.0261 O   0  0  0  0  0  0  0  0  0  0  0  0
    3.9642   -1.3330    1.3392 C   0  0  0  0  0  0  0  0  0  0  0  0
    4.1111   -0.7378    2.3851 O   0  0  0  0  0  0  0  0  0  0  0  0
    4.0025   -2.6684    1.1447 N   0  0  0  0  0  0  0  0  0  0  0  0
    3.7971   -2.9661   -0.1455 C   0  0  0  0  0  0  0  0  0  0  0  0
    3.7829   -4.0983   -0.5849 O   0  0  0  0  0  0  0  0  0  0  0  0
    3.6091   -1.8686   -0.8975 O   0  0  0  0  0  0  0  0  0  0  0  0
   -0.9588    1.9070    0.0260 H   0  0  0  0  0  0  0  0  0  0  0  0
    1.1541    3.1641    0.0074 H   0  0  0  0  0  0  0  0  0  0  0  0
    1.2209   -1.7582   -0.0174 H   0  0  0  0  0  0  0  0  0  0  0  0
    5.8019   -0.3189   -0.2168 H   0  0  0  0  0  0  0  0  0  0  0  0
    4.7898    0.3757   -1.5095 H   0  0  0  0  0  0  0  0  0  0  0  0
    4.7324    1.2657    1.4159 H   0  0  0  0  0  0  0  0  0  0  0  0
    5.5962    2.1206    0.1104 H   0  0  0  0  0  0  0  0  0  0  0  0
    4.1577   -3.3230    1.8435 H   0  0  0  0  0  0  0  0  0  0  0  0
  1  6  2  0  0  0  0
  1  2  1  0  0  0  0
  1 18  1  0  0  0  0
  2  3  2  0  0  0  0
  2 19  1  0  0  0  0
  3 11  1  0  0  0  0
  3  4  1  0  0  0  0
  4  5  2  0  0  0  0
  4  8  1  0  0  0  0
  5  6  1  0  0  0  0
  5 20  1  0  0  0  0
  6  7  1  0  0  0  0
  8 17  1  0  0  0  0
  8  9  1  0  0  0  0
  8 12  1  0  0  0  0
  9 10  1  0  0  0  0
  9 21  1  0  0  0  0
  9 22  1  0  0  0  0
 10 11  1  0  0  0  0
 10 23  1  0  0  0  0
 10 24  1  0  0  0  0
 12 13  2  0  0  0  0
 12 14  1  0  0  0  0
 14 15  1  0  0  0  0
 14 25  1  0  0  0  0
 15 16  2  0  0  0  0
 15 17  1  0  0  0  0
M  END
$$$$
CHEMBL334830
  -OEChem-07121202273D

 36 39  0     1  0  0  0  0  0999 V2000
   -0.0163    1.3512    0.0095 C   0  0  0  0  0  0  0  0  0  0  0  0
    1.3086    1.7982   -0.0008 C   0  0  0  0  0  0  0  0  0  0  0  0
    2.1125    0.6789   -0.0150 C   0  0  0  0  0  0  0  0  0  0  0  0
    1.2811   -0.4252   -0.0118 N   0  0  0  0  0  0  0  0  0  0  0  0
    0.0021   -0.0041    0.0020 C   0  0  0  0  0  0  0  0  0  0  0  0
    1.9064   -1.7460   -0.0222 C   0  0  2  0  0  0  0  0  0  0  0  0
    1.3604   -2.5244   -1.2292 C   0  0  0  0  0  0  0  0  0  0  0  0
    0.5969   -3.6618   -0.5808 C   0  0  0  0  0  0  0  0  0  0  0  0
   -0.0655   -4.6241   -1.2405 O   0  5  0  0  0  0  0  0  0  0  0  0
    0.6830   -3.5625    0.7135 N   0  0  0  0  0  0  0  0  0  0  0  0
    1.3934   -2.5263    1.1614 C   0  0  0  0  0  0  0  0  0  0  0  0
    1.5942   -2.2568    2.3281 O   0  0  0  0  0  0  0  0  0  0  0  0
    3.4070   -1.8477   -0.0422 C   0  0  0  0  0  0  0  0  0  0  0  0
    3.9508   -2.9312   -0.0560 O   0  0  0  0  0  0  0  0  0  0  0  0
    4.1382   -0.7136   -0.0449 N   0  0  0  0  0  0  0  0  0  0  0  0
    3.5628    0.4985   -0.0310 C   0  0  0  0  0  0  0  0  0  0  0  0
    4.2752    1.4847   -0.0322 O   0  0  0  0  0  0  0  0  0  0  0  0
    5.6000   -0.8083   -0.0631 C   0  0  0  0  0  0  0  0  0  0  0  0
    6.0840   -0.8330   -1.4901 C   0  0  0  0  0  0  0  0  0  0  0  0
    6.4207   -2.0344   -2.0850 C   0  0  0  0  0  0  0  0  0  0  0  0
    6.8642   -2.0579   -3.3938 C   0  0  0  0  0  0  0  0  0  0  0  0
    6.9721   -0.8789   -4.1098 C   0  0  0  0  0  0  0  0  0  0  0  0
    6.6362    0.3238   -3.5162 C   0  0  0  0  0  0  0  0  0  0  0  0
    6.1860    0.3470   -2.2070 C   0  0  0  0  0  0  0  0  0  0  0  0
    5.8523    1.5209   -1.6277 F   0  0  0  0  0  0  0  0  0  0  0  0
    7.5796   -0.9124   -5.9003 Br  0  0  0  0  0  0  0  0  0  0  0  0
   -0.8977    1.9751    0.0253 H   0  0  0  0  0  0  0  0  0  0  0  0
    1.6394    2.8263    0.0020 H   0  0  0  0  0  0  0  0  0  0  0  0
   -0.8686   -0.6431    0.0061 H   0  0  0  0  0  0  0  0  0  0  0  0
    0.6920   -1.8992   -1.8212 H   0  0  0  0  0  0  0  0  0  0  0  0
    2.1761   -2.9075   -1.8424 H   0  0  0  0  0  0  0  0  0  0  0  0
    6.0264    0.0535    0.4503 H   0  0  0  0  0  0  0  0  0  0  0  0
    5.9112   -1.7227    0.4420 H   0  0  0  0  0  0  0  0  0  0  0  0
    6.3375   -2.9551   -1.5268 H   0  0  0  0  0  0  0  0  0  0  0  0
    7.1270   -2.9970   -3.8578 H   0  0  0  0  0  0  0  0  0  0  0  0
    6.7211    1.2443   -4.0747 H   0  0  0  0  0  0  0  0  0  0  0  0
  1  5  2  0  0  0  0
  1  2  1  0  0  0  0
  1 27  1  0  0  0  0
  2  3  2  0  0  0  0
  2 28  1  0  0  0  0
  3 16  1  0  0  0  0
  3  4  1  0  0  0  0
  4  5  1  0  0  0  0
  4  6  1  0  0  0  0
  5 29  1  0  0  0  0
  6 11  1  0  0  0  0
  6  7  1  0  0  0  0
  6 13  1  0  0  0  0
  7  8  1  0  0  0  0
  7 30  1  0  0  0  0
  7 31  1  0  0  0  0
  8  9  1  0  0  0  0
  8 10  2  0  0  0  0
 10 11  1  0  0  0  0
 11 12  2  0  0  0  0
 13 14  2  0  0  0  0
 13 15  1  0  0  0  0
 15 16  1  0  0  0  0
 15 18  1  0  0  0  0
 16 17  2  0  0  0  0
 18 19  1  0  0  0  0
 18 32  1  0  0  0  0
 18 33  1  0  0  0  0
 19 24  2  0  0  0  0
 19 20  1  0  0  0  0
 20 21  2  0  0  0  0
 20 34  1  0  0  0  0
 21 22  1  0  0  0  0
 21 35  1  0  0  0  0
 22 23  2  0  0  0  0
 22 26  1  0  0  0  0
 23 24  1  0  0  0  0
 23 36  1  0  0  0  0
 24 25  1  0  0  0  0
M  CHG  1   9  -1
M  END
$$$$
CHEMBL84446
  -OEChem-07121202273D

 30 32  0     1  0  0  0  0  0999 V2000
   -0.0167    1.3801    0.0096 C   0  0  0  0  0  0  0  0  0  0  0  0
    1.1701    2.0848    0.0021 C   0  0  0  0  0  0  0  0  0  0  0  0
    2.3855    1.4100   -0.0123 C   0  0  0  0  0  0  0  0  0  0  0  0
    2.4028    0.0246   -0.0169 C   0  0  0  0  0  0  0  0  0  0  0  0
    1.2099   -0.6782   -0.0114 C   0  0  0  0  0  0  0  0  0  0  0  0
    0.0021   -0.0041    0.0020 C   0  0  0  0  0  0  0  0  0  0  0  0
   -1.1583   -0.6960    0.0081 F   0  0  0  0  0  0  0  0  0  0  0  0
    3.6992   -0.7359   -0.0229 C   0  0  1  0  0  0  0  0  0  0  0  0
    4.8552    0.1695   -0.4367 C   0  0  0  0  0  0  0  0  0  0  0  0
    4.7464    1.4825    0.3507 C   0  0  2  0  0  0  0  0  0  0  0  0
    4.7311    1.2686    1.4194 H   0  0  0  0  0  0  0  0  0  0  0  0
    3.5337    2.1363   -0.0253 O   0  0  0  0  0  0  0  0  0  0  0  0
    5.9241    2.3657    0.0278 C   0  0  0  0  0  0  0  0  0  0  0  0
    5.7517    3.4213   -0.5440 O   0  0  0  0  0  0  0  0  0  0  0  0
    7.1688    1.9826    0.3745 N   0  0  0  0  0  0  0  0  0  0  0  0
    3.9627   -1.3398    1.3369 C   0  0  0  0  0  0  0  0  0  0  0  0
    4.1092   -0.7502    2.3860 O   0  0  0  0  0  0  0  0  0  0  0  0
    4.0007   -2.6737    1.1374 N   0  0  0  0  0  0  0  0  0  0  0  0
    3.7990   -2.9857   -0.1487 C   0  0  0  0  0  0  0  0  0  0  0  0
    3.7883   -4.1240   -0.5744 O   0  0  0  0  0  0  0  0  0  0  0  0
    3.6097   -1.8965   -0.9179 N   0  0  0  0  0  0  0  0  0  0  0  0
   -0.9588    1.9080    0.0260 H   0  0  0  0  0  0  0  0  0  0  0  0
    1.1544    3.1647    0.0070 H   0  0  0  0  0  0  0  0  0  0  0  0
    1.2225   -1.7581   -0.0176 H   0  0  0  0  0  0  0  0  0  0  0  0
    5.8031   -0.3179   -0.2088 H   0  0  0  0  0  0  0  0  0  0  0  0
    4.7955    0.3761   -1.5053 H   0  0  0  0  0  0  0  0  0  0  0  0
    7.3067    1.1383    0.8318 H   0  0  0  0  0  0  0  0  0  0  0  0
    7.9268    2.5510    0.1667 H   0  0  0  0  0  0  0  0  0  0  0  0
    4.1552   -3.3257    1.8388 H   0  0  0  0  0  0  0  0  0  0  0  0
    3.4463   -1.8817   -1.8739 H   0  0  0  0  0  0  0  0  0  0  0  0
  1  6  2  0  0  0  0
  1  2  1  0  0  0  0
  1 22  1  0  0  0  0
  2  3  2  0  0  0  0
  2 23  1  0  0  0  0
  3 12  1  0  0  0  0
  3  4  1  0  0  0  0
  4  5  2  0  0  0  0
  4  8  1  0  0  0  0
  5  6  1  0  0  0  0
  5 24  1  0  0  0  0
  6  7  1  0  0  0  0
  8 21  1  0  0  0  0
  8  9  1  0  0  0  0
  8 16  1  0  0  0  0
  9 10  1  0  0  0  0
  9 25  1  0  0  0  0
  9 26  1  0  0  0  0
 10 11  1  0  0  0  0
 10 12  1  0  0  0  0
 10 13  1  0  0  0  0
 13 14  2  0  0  0  0
 13 15  1  0  0  0  0
 15 27  1  0  0  0  0
 15 28  1  0  0  0  0
 16 17  2  0  0  0  0
 16 18  1  0  0  0  0
 18 19  1  0  0  0  0
 18 29  1  0  0  0  0
 19 20  2  0  0  0  0
 19 21  1  0  0  0  0
 21 30  1  0  0  0  0
M  END
$$$$
CHEMBL84446
  -OEChem-07121202273D

 29 31  0     1  0  0  0  0  0999 V2000
   -0.0167    1.3801    0.0096 C   0  0  0  0  0  0  0  0  0  0  0  0
    1.1701    2.0848    0.0021 C   0  0  0  0  0  0  0  0  0  0  0  0
    2.3854    1.4100   -0.0127 C   0  0  0  0  0  0  0  0  0  0  0  0
    2.4028    0.0245   -0.0173 C   0  0  0  0  0  0  0  0  0  0  0  0
    1.2099   -0.6782   -0.0113 C   0  0  0  0  0  0  0  0  0  0  0  0
    0.0021   -0.0041    0.0020 C   0  0  0  0  0  0  0  0  0  0  0  0
   -1.1583   -0.6959    0.0081 F   0  0  0  0  0  0  0  0  0  0  0  0
    3.6991   -0.7356   -0.0238 C   0  0  1  0  0  0  0  0  0  0  0  0
    4.8557    0.1693   -0.4361 C   0  0  0  0  0  0  0  0  0  0  0  0
    4.7463    1.4826    0.3509 C   0  0  2  0  0  0  0  0  0  0  0  0
    4.7304    1.2689    1.4197 H   0  0  0  0  0  0  0  0  0  0  0  0
    3.5338    2.1362   -0.0260 O   0  0  0  0  0  0  0  0  0  0  0  0
    5.9241    2.3658    0.0286 C   0  0  0  0  0  0  0  0  0  0  0  0
    5.7519    3.4212   -0.5436 O   0  0  0  0  0  0  0  0  0  0  0  0
    7.1687    1.9828    0.3761 N   0  0  0  0  0  0  0  0  0  0  0  0
    3.9618   -1.3454    1.3330 C   0  0  0  0  0  0  0  0  0  0  0  0
    4.1233   -0.6922    2.4952 O   0  5  0  0  0  0  0  0  0  0  0  0
    3.9996   -2.6382    1.1453 N   0  0  0  0  0  0  0  0  0  0  0  0
    3.8007   -2.9763   -0.1357 C   0  0  0  0  0  0  0  0  0  0  0  0
    3.7933   -4.1229   -0.5432 O   0  0  0  0  0  0  0  0  0  0  0  0
    3.6097   -1.8961   -0.9205 N   0  0  0  0  0  0  0  0  0  0  0  0
   -0.9588    1.9080    0.0260 H   0  0  0  0  0  0  0  0  0  0  0  0
    1.1545    3.1646    0.0073 H   0  0  0  0  0  0  0  0  0  0  0  0
    1.2224   -1.7581   -0.0176 H   0  0  0  0  0  0  0  0  0  0  0  0
    5.8032   -0.3183   -0.2069 H   0  0  0  0  0  0  0  0  0  0  0  0
    4.7975    0.3758   -1.5048 H   0  0  0  0  0  0  0  0  0  0  0  0
    7.3064    1.1387    0.8337 H   0  0  0  0  0  0  0  0  0  0  0  0
    7.9267    2.5513    0.1686 H   0  0  0  0  0  0  0  0  0  0  0  0
    3.4473   -1.8873   -1.8767 H   0  0  0  0  0  0  0  0  0  0  0  0
  1  6  2  0  0  0  0
  1  2  1  0  0  0  0
  1 22  1  0  0  0  0
  2  3  2  0  0  0  0
  2 23  1  0  0  0  0
  3 12  1  0  0  0  0
  3  4  1  0  0  0  0
  4  5  2  0  0  0  0
  4  8  1  0  0  0  0
  5  6  1  0  0  0  0
  5 24  1  0  0  0  0
  6  7  1  0  0  0  0
  8 21  1  0  0  0  0
  8  9  1  0  0  0  0
  8 16  1  0  0  0  0
  9 10  1  0  0  0  0
  9 25  1  0  0  0  0
  9 26  1  0  0  0  0
 10 11  1  0  0  0  0
 10 12  1  0  0  0  0
 10 13  1  0  0  0  0
 13 14  2  0  0  0  0
 13 15  1  0  0  0  0
 15 27  1  0  0  0  0
 15 28  1  0  0  0  0
 16 17  1  0  0  0  0
 16 18  2  0  0  0  0
 18 19  1  0  0  0  0
 19 20  2  0  0  0  0
 19 21  1  0  0  0  0
 21 29  1  0  0  0  0
M  CHG  1  17  -1
M  END
$$$$
CHEMBL194582
  -OEChem-07121202273D

 29 31  0     0  0  0  0  0  0999 V2000
   -0.1129    0.4962    0.2408 C   0  0  0  0  0  0  0  0  0  0  0  0
    0.9311    1.4108    0.1129 C   0  0  0  0  0  0  0  0  0  0  0  0
    2.2260    0.9944    0.0697 C   0  0  0  0  0  0  0  0  0  0  0  0
    2.5186   -0.3776    0.1555 C   0  0  0  0  0  0  0  0  0  0  0  0
    1.4569   -1.3076    0.2861 C   0  0  0  0  0  0  0  0  0  0  0  0
    0.1322   -0.8396    0.3267 C   0  0  0  0  0  0  0  0  0  0  0  0
    1.7492   -2.6791    0.3724 C   0  0  0  0  0  0  0  0  0  0  0  0
    3.0445   -3.0956    0.3296 C   0  0  0  0  0  0  0  0  0  0  0  0
    4.0882   -2.1814    0.2017 C   0  0  0  0  0  0  0  0  0  0  0  0
    3.8428   -0.8452    0.1149 C   0  0  0  0  0  0  0  0  0  0  0  0
    5.1790    0.2918   -0.0475 S   0  0  0  0  0  0  0  0  0  0  0  0
    6.3721   -0.4800   -0.0412 O   0  0  0  0  0  0  0  0  0  0  0  0
    4.8419    1.1645   -1.1170 O   0  0  0  0  0  0  0  0  0  0  0  0
    5.2073    1.2747    1.4147 C   0  0  0  0  0  0  0  0  0  0  0  0
    5.8509    0.8086    2.5517 C   0  0  0  0  0  0  0  0  0  0  0  0
    5.8477    1.6159    3.6793 C   0  0  0  0  0  0  0  0  0  0  0  0
    5.1983    2.8447    3.5995 C   0  0  0  0  0  0  0  0  0  0  0  0
    4.6108    3.2045    2.4692 N   0  0  0  0  0  0  0  0  0  0  0  0
    4.6214    2.4557    1.4268 N   0  0  0  0  0  0  0  0  0  0  0  0
    5.1672    3.6701    4.6762 O   0  5  0  0  0  0  0  0  0  0  0  0
   -1.1315    0.8535    0.2768 H   0  0  0  0  0  0  0  0  0  0  0  0
    0.7091    2.4656    0.0467 H   0  0  0  0  0  0  0  0  0  0  0  0
    3.0247    1.7145   -0.0304 H   0  0  0  0  0  0  0  0  0  0  0  0
   -0.6869   -1.5365    0.4258 H   0  0  0  0  0  0  0  0  0  0  0  0
    0.9506   -3.3992    0.4725 H   0  0  0  0  0  0  0  0  0  0  0  0
    3.2666   -4.1504    0.3961 H   0  0  0  0  0  0  0  0  0  0  0  0
    5.1071   -2.5382    0.1706 H   0  0  0  0  0  0  0  0  0  0  0  0
    6.3395   -0.1545    2.5587 H   0  0  0  0  0  0  0  0  0  0  0  0
    6.3336    1.3009    4.5910 H   0  0  0  0  0  0  0  0  0  0  0  0
  1  6  2  0  0  0  0
  1  2  1  0  0  0  0
  1 21  1  0  0  0  0
  2  3  2  0  0  0  0
  2 22  1  0  0  0  0
  3  4  1  0  0  0  0
  3 23  1  0  0  0  0
  4 10  2  0  0  0  0
  4  5  1  0  0  0  0
  5  6  1  0  0  0  0
  5  7  2  0  0  0  0
  6 24  1  0  0  0  0
  7  8  1  0  0  0  0
  7 25  1  0  0  0  0
  8  9  2  0  0  0  0
  8 26  1  0  0  0  0
  9 10  1  0  0  0  0
  9 27  1  0  0  0  0
 10 11  1  0  0  0  0
 11 12  2  0  0  0  0
 11 13  2  0  0  0  0
 11 14  1  0  0  0  0
 14 15  2  0  0  0  0
 14 19  1  0  0  0  0
 15 16  1  0  0  0  0
 15 28  1  0  0  0  0
 16 17  2  0  0  0  0
 16 29  1  0  0  0  0
 17 20  1  0  0  0  0
 17 18  1  0  0  0  0
 18 19  2  0  0  0  0
M  CHG  1  20  -1
M  END
$$$$
CHEMBL370444
  -OEChem-07121202273D

 28 30  0     0  0  0  0  0  0999 V2000
   -0.0171    1.4074    0.0098 C   0  0  0  0  0  0  0  0  0  0  0  0
   -1.2339    2.0281    0.0190 C   0  0  0  0  0  0  0  0  0  0  0  0
   -2.3893    1.2293    0.0202 C   0  0  0  0  0  0  0  0  0  0  0  0
   -2.2941   -0.0712    0.0131 N   0  0  0  0  0  0  0  0  0  0  0  0
   -1.1633   -0.6791    0.0044 N   0  0  0  0  0  0  0  0  0  0  0  0
    0.0021   -0.0041    0.0020 C   0  0  0  0  0  0  0  0  0  0  0  0
    1.0637   -0.6064   -0.0118 O   0  0  0  0  0  0  0  0  0  0  0  0
   -3.9787    1.9900    0.0319 S   0  0  0  0  0  0  0  0  0  0  0  0
   -3.8333    3.2446   -0.6192 O   0  0  0  0  0  0  0  0  0  0  0  0
   -4.9034    1.0054   -0.4092 O   0  0  0  0  0  0  0  0  0  0  0  0
   -4.3772    2.3381    1.7126 C   0  0  0  0  0  0  0  0  0  0  0  0
   -5.0187    1.4999    2.5421 C   0  0  0  0  0  0  0  0  0  0  0  0
   -5.1403    2.1832    3.8321 C   0  0  0  0  0  0  0  0  0  0  0  0
   -5.6973    1.8365    5.0651 C   0  0  0  0  0  0  0  0  0  0  0  0
   -5.6480    2.7221    6.1055 C   0  0  0  0  0  0  0  0  0  0  0  0
   -5.0483    3.9650    5.9459 C   0  0  0  0  0  0  0  0  0  0  0  0
   -4.4926    4.3269    4.7375 C   0  0  0  0  0  0  0  0  0  0  0  0
   -4.5316    3.4398    3.6652 C   0  0  0  0  0  0  0  0  0  0  0  0
   -4.0735    3.5004    2.3673 N   0  0  0  0  0  0  0  0  0  0  0  0
   -3.6071    4.2553    1.9755 H   0  0  0  0  0  0  0  0  0  0  0  0
   -3.7471    5.8838    4.5531 Cl  0  0  0  0  0  0  0  0  0  0  0  0
   -6.3406    2.2903    7.6376 Cl  0  0  0  0  0  0  0  0  0  0  0  0
    0.9000    1.9777    0.0041 H   0  0  0  0  0  0  0  0  0  0  0  0
   -1.3057    3.1057    0.0255 H   0  0  0  0  0  0  0  0  0  0  0  0
   -1.1479   -1.6489   -0.0006 H   0  0  0  0  0  0  0  0  0  0  0  0
   -5.3774    0.5096    2.3034 H   0  0  0  0  0  0  0  0  0  0  0  0
   -6.1658    0.8723    5.1961 H   0  0  0  0  0  0  0  0  0  0  0  0
   -5.0175    4.6545    6.7766 H   0  0  0  0  0  0  0  0  0  0  0  0
  1  6  1  0  0  0  0
  1 23  1  0  0  0  0
  1  2  2  0  0  0  0
  2 24  1  0  0  0  0
  2  3  1  0  0  0  0
  3  8  1  0  0  0  0
  3  4  2  0  0  0  0
  4  5  1  0  0  0  0
  5  6  1  0  0  0  0
  5 25  1  0  0  0  0
  6  7  2  0  0  0  0
  8  9  2  0  0  0  0
  8 10  2  0  0  0  0
  8 11  1  0  0  0  0
 11 19  1  0  0  0  0
 11 12  2  0  0  0  0
 12 13  1  0  0  0  0
 12 26  1  0  0  0  0
 13 18  2  0  0  0  0
 13 14  1  0  0  0  0
 14 15  2  0  0  0  0
 14 27  1  0  0  0  0
 15 16  1  0  0  0  0
 15 22  1  0  0  0  0
 16 17  2  0  0  0  0
 16 28  1  0  0  0  0
 17 18  1  0  0  0  0
 17 21  1  0  0  0  0
 18 19  1  0  0  0  0
 19 20  1  0  0  0  0
M  END
$$$$
CHEMBL370444
  -OEChem-07121202273D

 27 29  0     0  0  0  0  0  0999 V2000
   -0.0168    1.3880    0.0097 C   0  0  0  0  0  0  0  0  0  0  0  0
   -1.2508    2.0207    0.0190 C   0  0  0  0  0  0  0  0  0  0  0  0
   -2.3895    1.2284    0.0202 C   0  0  0  0  0  0  0  0  0  0  0  0
   -2.2779   -0.0853    0.0125 N   0  0  0  0  0  0  0  0  0  0  0  0
   -1.1384   -0.6759    0.0038 N   0  0  0  0  0  0  0  0  0  0  0  0
    0.0021   -0.0041    0.0020 C   0  0  0  0  0  0  0  0  0  0  0  0
    1.1847   -0.6693   -0.0129 O   0  5  0  0  0  0  0  0  0  0  0  0
   -3.9843    1.9773    0.0325 S   0  0  0  0  0  0  0  0  0  0  0  0
   -4.8786    1.0196    0.5823 O   0  0  0  0  0  0  0  0  0  0  0  0
   -3.8198    3.2740    0.5899 O   0  0  0  0  0  0  0  0  0  0  0  0
   -4.4643    2.2085   -1.6471 C   0  0  0  0  0  0  0  0  0  0  0  0
   -4.2020    3.3021   -2.3801 C   0  0  0  0  0  0  0  0  0  0  0  0
   -4.7754    3.0751   -3.7088 C   0  0  0  0  0  0  0  0  0  0  0  0
   -4.8297    3.8283   -4.8838 C   0  0  0  0  0  0  0  0  0  0  0  0
   -5.4574    3.3207   -5.9872 C   0  0  0  0  0  0  0  0  0  0  0  0
   -6.0425    2.0613   -5.9489 C   0  0  0  0  0  0  0  0  0  0  0  0
   -6.0003    1.3017   -4.7994 C   0  0  0  0  0  0  0  0  0  0  0  0
   -5.3656    1.7996   -3.6647 C   0  0  0  0  0  0  0  0  0  0  0  0
   -5.1544    1.2976   -2.3992 N   0  0  0  0  0  0  0  0  0  0  0  0
   -5.4524    0.4287   -2.0873 H   0  0  0  0  0  0  0  0  0  0  0  0
   -6.7364   -0.2701   -4.7666 Cl  0  0  0  0  0  0  0  0  0  0  0  0
   -5.5243    4.2575   -7.4472 Cl  0  0  0  0  0  0  0  0  0  0  0  0
    0.9009    1.9574    0.0040 H   0  0  0  0  0  0  0  0  0  0  0  0
   -1.3232    3.0983    0.0256 H   0  0  0  0  0  0  0  0  0  0  0  0
   -3.6694    4.1826   -2.0522 H   0  0  0  0  0  0  0  0  0  0  0  0
   -4.3776    4.8084   -4.9206 H   0  0  0  0  0  0  0  0  0  0  0  0
   -6.5355    1.6737   -6.8282 H   0  0  0  0  0  0  0  0  0  0  0  0
  1  6  2  0  0  0  0
  1 23  1  0  0  0  0
  1  2  1  0  0  0  0
  2 24  1  0  0  0  0
  2  3  2  0  0  0  0
  3  8  1  0  0  0  0
  3  4  1  0  0  0  0
  4  5  2  0  0  0  0
  5  6  1  0  0  0  0
  6  7  1  0  0  0  0
  8  9  2  0  0  0  0
  8 10  2  0  0  0  0
  8 11  1  0  0  0  0
 11 19  1  0  0  0  0
 11 12  2  0  0  0  0
 12 13  1  0  0  0  0
 12 25  1  0  0  0  0
 13 18  2  0  0  0  0
 13 14  1  0  0  0  0
 14 15  2  0  0  0  0
 14 26  1  0  0  0  0
 15 16  1  0  0  0  0
 15 22  1  0  0  0  0
 16 17  2  0  0  0  0
 16 27  1  0  0  0  0
 17 18  1  0  0  0  0
 17 21  1  0  0  0  0
 18 19  1  0  0  0  0
 19 20  1  0  0  0  0
M  CHG  1   7  -1
M  END
$$$$
CHEMBL442690
  -OEChem-07121202273D

 32 33  0     0  0  0  0  0  0999 V2000
   -0.0178    1.4608    0.0101 C   0  0  0  0  0  0  0  0  0  0  0  0
    0.0021   -0.0041    0.0020 N   0  0  0  0  0  0  0  0  0  0  0  0
    0.0241   -0.7433    1.2666 C   0  0  0  0  0  0  0  0  0  0  0  0
   -1.3889   -1.0161    1.7137 C   0  0  0  0  0  0  0  0  0  0  0  0
   -2.3274   -0.6289    1.0386 O   0  0  0  0  0  0  0  0  0  0  0  0
   -1.5937   -1.6240    2.7506 O   0  5  0  0  0  0  0  0  0  0  0  0
    0.0001   -0.6716   -1.1688 C   0  0  0  0  0  0  0  0  0  0  0  0
    0.0218   -2.2704   -1.1776 S   0  0  0  0  0  0  0  0  0  0  0  0
   -0.0226    0.0888   -2.4697 C   0  0  0  0  0  0  0  0  0  0  0  0
   -0.0202   -0.8991   -3.6380 C   0  0  0  0  0  0  0  0  0  0  0  0
   -0.0429   -0.1386   -4.9389 C   0  0  0  0  0  0  0  0  0  0  0  0
    0.9728    0.2729   -5.6401 N   0  0  0  0  0  0  0  0  0  0  0  0
    0.8202    0.9489   -6.7978 C   0  0  0  0  0  0  0  0  0  0  0  0
    1.7959    1.4660   -7.6791 C   0  0  0  0  0  0  0  0  0  0  0  0
    1.4197    2.1328   -8.8207 C   0  0  0  0  0  0  0  0  0  0  0  0
    0.0803    2.3182   -9.1425 C   0  0  0  0  0  0  0  0  0  0  0  0
   -0.8982    1.8230   -8.2987 C   0  0  0  0  0  0  0  0  0  0  0  0
   -0.5305    1.1544   -7.1539 C   0  0  0  0  0  0  0  0  0  0  0  0
   -1.3879    0.3639   -5.8170 S   0  0  0  0  0  0  0  0  0  0  0  0
   -2.2046    1.9943   -8.5971 F   0  0  0  0  0  0  0  0  0  0  0  0
    2.3718    2.6183   -9.6471 F   0  0  0  0  0  0  0  0  0  0  0  0
    3.1074    1.3046   -7.3976 F   0  0  0  0  0  0  0  0  0  0  0  0
    1.0048    1.8381    0.0023 H   0  0  0  0  0  0  0  0  0  0  0  0
   -0.5450    1.8219   -0.8730 H   0  0  0  0  0  0  0  0  0  0  0  0
   -0.5280    1.8123    0.9069 H   0  0  0  0  0  0  0  0  0  0  0  0
    0.5496   -1.6879    1.1262 H   0  0  0  0  0  0  0  0  0  0  0  0
    0.5371   -0.1514    2.0246 H   0  0  0  0  0  0  0  0  0  0  0  0
   -0.9215    0.7036   -2.5156 H   0  0  0  0  0  0  0  0  0  0  0  0
    0.8582    0.7278   -2.5324 H   0  0  0  0  0  0  0  0  0  0  0  0
    0.8787   -1.5139   -3.5922 H   0  0  0  0  0  0  0  0  0  0  0  0
   -0.9010   -1.5381   -3.5753 H   0  0  0  0  0  0  0  0  0  0  0  0
   -0.1947    2.8453  -10.0442 H   0  0  0  0  0  0  0  0  0  0  0  0
  1  2  1  0  0  0  0
  1 23  1  0  0  0  0
  1 24  1  0  0  0  0
  1 25  1  0  0  0  0
  2  3  1  0  0  0  0
  2  7  1  0  0  0  0
  3  4  1  0  0  0  0
  3 26  1  0  0  0  0
  3 27  1  0  0  0  0
  4  5  2  0  0  0  0
  4  6  1  0  0  0  0
  7  8  2  0  0  0  0
  7  9  1  0  0  0  0
  9 10  1  0  0  0  0
  9 28  1  0  0  0  0
  9 29  1  0  0  0  0
 10 11  1  0  0  0  0
 10 30  1  0  0  0  0
 10 31  1  0  0  0  0
 11 19  1  0  0  0  0
 11 12  2  0  0  0  0
 12 13  1  0  0  0  0
 13 18  2  0  0  0  0
 13 14  1  0  0  0  0
 14 15  2  0  0  0  0
 14 22  1  0  0  0  0
 15 16  1  0  0  0  0
 15 21  1  0  0  0  0
 16 17  2  0  0  0  0
 16 32  1  0  0  0  0
 17 18  1  0  0  0  0
 17 20  1  0  0  0  0
 18 19  1  0  0  0  0
M  CHG  1   6  -1
M  END
$$$$
CHEMBL133662
  -OEChem-07121202273D

 35 37  0     1  0  0  0  0  0999 V2000
   -0.2568    1.1999    0.1648 C   0  0  0  0  0  0  0  0  0  0  0  0
    1.0293    1.7472    0.1211 C   0  0  0  0  0  0  0  0  0  0  0  0
    1.9143    0.6922    0.0479 C   0  0  0  0  0  0  0  0  0  0  0  0
    1.1705   -0.4691    0.0478 N   0  0  0  0  0  0  0  0  0  0  0  0
   -0.1360   -0.1496    0.1186 C   0  0  0  0  0  0  0  0  0  0  0  0
    1.8818   -1.7526   -0.0245 C   0  0  2  0  0  0  0  0  0  0  0  0
    3.3916   -1.7219   -0.0946 C   0  0  0  0  0  0  0  0  0  0  0  0
    4.0211   -2.7563   -0.1559 O   0  0  0  0  0  0  0  0  0  0  0  0
    4.0319   -0.5382   -0.0889 N   0  0  0  0  0  0  0  0  0  0  0  0
    3.3730    0.6285   -0.0227 C   0  0  0  0  0  0  0  0  0  0  0  0
    4.0091    1.6655   -0.0217 O   0  0  0  0  0  0  0  0  0  0  0  0
    5.4952   -0.5232   -0.1574 C   0  0  0  0  0  0  0  0  0  0  0  0
    5.9302   -0.4752   -1.5994 C   0  0  0  0  0  0  0  0  0  0  0  0
    6.1347   -1.6502   -2.2989 C   0  0  0  0  0  0  0  0  0  0  0  0
    6.5341   -1.6076   -3.6213 C   0  0  0  0  0  0  0  0  0  0  0  0
    6.7290   -0.3887   -4.2461 C   0  0  0  0  0  0  0  0  0  0  0  0
    6.5238    0.7878   -3.5458 C   0  0  0  0  0  0  0  0  0  0  0  0
    6.1190    0.7433   -2.2236 C   0  0  0  0  0  0  0  0  0  0  0  0
    6.7685    2.3181   -4.3281 Cl  0  0  0  0  0  0  0  0  0  0  0  0
    7.2312   -0.3345   -5.9070 Cl  0  0  0  0  0  0  0  0  0  0  0  0
    1.3725   -2.4994   -1.2589 C   0  0  0  0  0  0  0  0  0  0  0  0
    1.6449   -1.6766   -2.4917 C   0  0  0  0  0  0  0  0  0  0  0  0
    2.2845   -0.6422   -2.4052 O   0  0  0  0  0  0  0  0  0  0  0  0
    1.2257   -2.0452   -3.5756 O   0  5  0  0  0  0  0  0  0  0  0  0
   -1.1818    1.7537    0.2288 H   0  0  0  0  0  0  0  0  0  0  0  0
    1.2815    2.7972    0.1405 H   0  0  0  0  0  0  0  0  0  0  0  0
   -0.9544   -0.8540    0.1364 H   0  0  0  0  0  0  0  0  0  0  0  0
    1.6016   -2.3377    0.8515 H   0  0  0  0  0  0  0  0  0  0  0  0
    5.8745    0.3545    0.3659 H   0  0  0  0  0  0  0  0  0  0  0  0
    5.8901   -1.4246    0.3114 H   0  0  0  0  0  0  0  0  0  0  0  0
    5.9826   -2.6019   -1.8115 H   0  0  0  0  0  0  0  0  0  0  0  0
    6.6943   -2.5257   -4.1669 H   0  0  0  0  0  0  0  0  0  0  0  0
    5.9548    1.6607   -1.6779 H   0  0  0  0  0  0  0  0  0  0  0  0
    1.8853   -3.4577   -1.3410 H   0  0  0  0  0  0  0  0  0  0  0  0
    0.2998   -2.6683   -1.1644 H   0  0  0  0  0  0  0  0  0  0  0  0
  1  5  2  0  0  0  0
  1  2  1  0  0  0  0
  1 25  1  0  0  0  0
  2  3  2  0  0  0  0
  2 26  1  0  0  0  0
  3 10  1  0  0  0  0
  3  4  1  0  0  0  0
  4  5  1  0  0  0  0
  4  6  1  0  0  0  0
  5 27  1  0  0  0  0
  6  7  1  0  0  0  0
  6 21  1  0  0  0  0
  6 28  1  0  0  0  0
  7  8  2  0  0  0  0
  7  9  1  0  0  0  0
  9 10  1  0  0  0  0
  9 12  1  0  0  0  0
 10 11  2  0  0  0  0
 12 13  1  0  0  0  0
 12 29  1  0  0  0  0
 12 30  1  0  0  0  0
 13 18  2  0  0  0  0
 13 14  1  0  0  0  0
 14 15  2  0  0  0  0
 14 31  1  0  0  0  0
 15 16  1  0  0  0  0
 15 32  1  0  0  0  0
 16 17  2  0  0  0  0
 16 20  1  0  0  0  0
 17 18  1  0  0  0  0
 17 19  1  0  0  0  0
 18 33  1  0  0  0  0
 21 22  1  0  0  0  0
 21 34  1  0  0  0  0
 21 35  1  0  0  0  0
 22 23  2  0  0  0  0
 22 24  1  0  0  0  0
M  CHG  1  24  -1
M  END
$$$$
CHEMBL133662
  -OEChem-07121202273D

 35 37  0     1  0  0  0  0  0999 V2000
    0.0501    1.3741    0.0064 C   0  0  0  0  0  0  0  0  0  0  0  0
    1.3826    1.7982   -0.0036 C   0  0  0  0  0  0  0  0  0  0  0  0
    2.1667    0.6640   -0.0162 C   0  0  0  0  0  0  0  0  0  0  0  0
    1.3178   -0.4228   -0.0139 N   0  0  0  0  0  0  0  0  0  0  0  0
    0.0454    0.0185   -0.0002 C   0  0  0  0  0  0  0  0  0  0  0  0
    1.9078   -1.7683   -0.0262 C   0  0  1  0  0  0  0  0  0  0  0  0
    3.4153   -1.8799   -0.0408 C   0  0  0  0  0  0  0  0  0  0  0  0
    3.9468   -2.9696   -0.0517 O   0  0  0  0  0  0  0  0  0  0  0  0
    4.1631   -0.7611   -0.0421 N   0  0  0  0  0  0  0  0  0  0  0  0
    3.6146    0.4632   -0.0307 C   0  0  0  0  0  0  0  0  0  0  0  0
    4.3447    1.4363   -0.0330 O   0  0  0  0  0  0  0  0  0  0  0  0
    5.6229   -0.8839   -0.0563 C   0  0  0  0  0  0  0  0  0  0  0  0
    6.1102   -0.9188   -1.4819 C   0  0  0  0  0  0  0  0  0  0  0  0
    6.2278   -2.1278   -2.1425 C   0  0  0  0  0  0  0  0  0  0  0  0
    6.6750   -2.1612   -3.4497 C   0  0  0  0  0  0  0  0  0  0  0  0
    7.0049   -0.9846   -4.0983 C   0  0  0  0  0  0  0  0  0  0  0  0
    6.8868    0.2260   -3.4370 C   0  0  0  0  0  0  0  0  0  0  0  0
    6.4340    0.2581   -2.1301 C   0  0  0  0  0  0  0  0  0  0  0  0
    7.3009    1.7033   -4.2491 Cl  0  0  0  0  0  0  0  0  0  0  0  0
    7.5673   -1.0260   -5.7401 Cl  0  0  0  0  0  0  0  0  0  0  0  0
    1.3967   -2.5131    1.2087 C   0  0  0  0  0  0  0  0  0  0  0  0
    1.9056   -1.8315    2.4527 C   0  0  0  0  0  0  0  0  0  0  0  0
    2.5246   -0.7848    2.3645 O   0  0  0  0  0  0  0  0  0  0  0  0
    1.6982   -2.3268    3.5474 O   0  5  0  0  0  0  0  0  0  0  0  0
   -0.8206    2.0129    0.0214 H   0  0  0  0  0  0  0  0  0  0  0  0
    1.7314    2.8204   -0.0021 H   0  0  0  0  0  0  0  0  0  0  0  0
   -0.8356   -0.6062    0.0054 H   0  0  0  0  0  0  0  0  0  0  0  0
    1.5273   -2.2900   -0.9044 H   0  0  0  0  0  0  0  0  0  0  0  0
    6.0644   -0.0302    0.4578 H   0  0  0  0  0  0  0  0  0  0  0  0
    5.9151   -1.8039    0.4502 H   0  0  0  0  0  0  0  0  0  0  0  0
    5.9703   -3.0465   -1.6365 H   0  0  0  0  0  0  0  0  0  0  0  0
    6.7673   -3.1059   -3.9649 H   0  0  0  0  0  0  0  0  0  0  0  0
    6.3377    1.2024   -1.6149 H   0  0  0  0  0  0  0  0  0  0  0  0
    0.3068   -2.5074    1.2113 H   0  0  0  0  0  0  0  0  0  0  0  0
    1.7546   -3.5425    1.1862 H   0  0  0  0  0  0  0  0  0  0  0  0
  1  5  2  0  0  0  0
  1  2  1  0  0  0  0
  1 25  1  0  0  0  0
  2  3  2  0  0  0  0
  2 26  1  0  0  0  0
  3 10  1  0  0  0  0
  3  4  1  0  0  0  0
  4  5  1  0  0  0  0
  4  6  1  0  0  0  0
  5 27  1  0  0  0  0
  6  7  1  0  0  0  0
  6 21  1  0  0  0  0
  6 28  1  0  0  0  0
  7  8  2  0  0  0  0
  7  9  1  0  0  0  0
  9 10  1  0  0  0  0
  9 12  1  0  0  0  0
 10 11  2  0  0  0  0
 12 13  1  0  0  0  0
 12 29  1  0  0  0  0
 12 30  1  0  0  0  0
 13 18  2  0  0  0  0
 13 14  1  0  0  0  0
 14 15  2  0  0  0  0
 14 31  1  0  0  0  0
 15 16  1  0  0  0  0
 15 32  1  0  0  0  0
 16 17  2  0  0  0  0
 16 20  1  0  0  0  0
 17 18  1  0  0  0  0
 17 19  1  0  0  0  0
 18 33  1  0  0  0  0
 21 22  1  0  0  0  0
 21 34  1  0  0  0  0
 21 35  1  0  0  0  0
 22 23  2  0  0  0  0
 22 24  1  0  0  0  0
M  CHG  1  24  -1
M  END
$$$$
CHEMBL277520
  -OEChem-07121202273D

 27 28  0     1  0  0  0  0  0999 V2000
    0.5668    2.4105   -0.4356 C   0  0  0  0  0  0  0  0  0  0  0  0
    0.4040    0.6357   -0.0976 S   0  0  0  0  0  0  0  0  0  0  0  0
    1.3728    0.2289    0.8591 O   0  0  0  0  0  0  0  0  0  0  0  0
   -0.9650    0.2923    0.0668 O   0  0  0  0  0  0  0  0  0  0  0  0
    0.8898   -0.1568   -1.5944 C   0  0  0  0  0  0  0  0  0  0  0  0
    2.0542   -0.9013   -1.6358 C   0  0  0  0  0  0  0  0  0  0  0  0
    2.4359   -1.5227   -2.8096 C   0  0  0  0  0  0  0  0  0  0  0  0
    1.6524   -1.4001   -3.9436 C   0  0  0  0  0  0  0  0  0  0  0  0
    0.4874   -0.6554   -3.9014 C   0  0  0  0  0  0  0  0  0  0  0  0
    0.1039   -0.0386   -2.7252 C   0  0  0  0  0  0  0  0  0  0  0  0
   -1.1682    0.7680   -2.6776 C   0  0  2  0  0  0  0  0  0  0  0  0
   -2.3639   -0.1349   -2.4478 C   0  0  0  0  0  0  0  0  0  0  0  0
   -2.5718   -0.8442   -1.4869 O   0  0  0  0  0  0  0  0  0  0  0  0
   -3.1481    0.0156   -3.5334 N   0  0  0  0  0  0  0  0  0  0  0  0
   -2.6196    0.8791   -4.4081 C   0  0  0  0  0  0  0  0  0  0  0  0
   -3.1438    1.1780   -5.4631 O   0  0  0  0  0  0  0  0  0  0  0  0
   -1.4434    1.3798   -3.9892 N   0  0  0  0  0  0  0  0  0  0  0  0
    2.1317   -2.1799   -5.4186 Cl  0  0  0  0  0  0  0  0  0  0  0  0
    1.5188    2.6001   -0.9313 H   0  0  0  0  0  0  0  0  0  0  0  0
   -0.2497    2.7338   -1.0813 H   0  0  0  0  0  0  0  0  0  0  0  0
    0.5290    2.9640    0.5026 H   0  0  0  0  0  0  0  0  0  0  0  0
    2.6656   -0.9969   -0.7507 H   0  0  0  0  0  0  0  0  0  0  0  0
    3.3458   -2.1036   -2.8420 H   0  0  0  0  0  0  0  0  0  0  0  0
   -0.1245   -0.5593   -4.7862 H   0  0  0  0  0  0  0  0  0  0  0  0
   -1.1074    1.5325   -1.9030 H   0  0  0  0  0  0  0  0  0  0  0  0
   -3.9913   -0.4456   -3.6646 H   0  0  0  0  0  0  0  0  0  0  0  0
   -0.8854    2.0192   -4.4589 H   0  0  0  0  0  0  0  0  0  0  0  0
  1  2  1  0  0  0  0
  1 19  1  0  0  0  0
  1 20  1  0  0  0  0
  1 21  1  0  0  0  0
  2  3  2  0  0  0  0
  2  4  2  0  0  0  0
  2  5  1  0  0  0  0
  5 10  2  0  0  0  0
  5  6  1  0  0  0  0
  6  7  2  0  0  0  0
  6 22  1  0  0  0  0
  7  8  1  0  0  0  0
  7 23  1  0  0  0  0
  8  9  2  0  0  0  0
  8 18  1  0  0  0  0
  9 10  1  0  0  0  0
  9 24  1  0  0  0  0
 10 11  1  0  0  0  0
 11 17  1  0  0  0  0
 11 12  1  0  0  0  0
 11 25  1  0  0  0  0
 12 13  2  0  0  0  0
 12 14  1  0  0  0  0
 14 15  1  0  0  0  0
 14 26  1  0  0  0  0
 15 16  2  0  0  0  0
 15 17  1  0  0  0  0
 17 27  1  0  0  0  0
M  END
$$$$
CHEMBL277520
  -OEChem-07121202273D

 27 28  0     1  0  0  0  0  0999 V2000
   -1.5683   -0.9794   -0.0833 C   0  0  0  0  0  0  0  0  0  0  0  0
   -0.0196   -0.0386    0.0009 S   0  0  0  0  0  0  0  0  0  0  0  0
   -0.2727    1.3417   -0.2223 O   0  0  0  0  0  0  0  0  0  0  0  0
    0.7505   -0.4627    1.1173 O   0  0  0  0  0  0  0  0  0  0  0  0
    0.9038   -0.5597   -1.4064 C   0  0  0  0  0  0  0  0  0  0  0  0
    2.0604   -1.2985   -1.2391 C   0  0  0  0  0  0  0  0  0  0  0  0
    2.7853   -1.7071   -2.3424 C   0  0  0  0  0  0  0  0  0  0  0  0
    2.3532   -1.3770   -3.6148 C   0  0  0  0  0  0  0  0  0  0  0  0
    1.1956   -0.6382   -3.7816 C   0  0  0  0  0  0  0  0  0  0  0  0
    0.4685   -0.2345   -2.6773 C   0  0  0  0  0  0  0  0  0  0  0  0
   -0.7956    0.5655   -2.8590 C   0  0  1  0  0  0  0  0  0  0  0  0
   -0.4752    2.0370   -3.0314 C   0  0  0  0  0  0  0  0  0  0  0  0
    0.0788    2.7641   -2.2350 O   0  0  0  0  0  0  0  0  0  0  0  0
   -0.9337    2.3688   -4.2545 N   0  0  0  0  0  0  0  0  0  0  0  0
   -1.4934    1.3224   -4.8724 C   0  0  0  0  0  0  0  0  0  0  0  0
   -1.9784    1.3752   -5.9855 O   0  0  0  0  0  0  0  0  0  0  0  0
   -1.4596    0.2052   -4.1236 N   0  0  0  0  0  0  0  0  0  0  0  0
    3.2636   -1.8895   -5.0012 Cl  0  0  0  0  0  0  0  0  0  0  0  0
   -1.9537   -0.9544   -1.1026 H   0  0  0  0  0  0  0  0  0  0  0  0
   -1.3822   -2.0127    0.2095 H   0  0  0  0  0  0  0  0  0  0  0  0
   -2.2998   -0.5363    0.5926 H   0  0  0  0  0  0  0  0  0  0  0  0
    2.3976   -1.5561   -0.2459 H   0  0  0  0  0  0  0  0  0  0  0  0
    3.6892   -2.2836   -2.2115 H   0  0  0  0  0  0  0  0  0  0  0  0
    0.8579   -0.3803   -4.7744 H   0  0  0  0  0  0  0  0  0  0  0  0
   -1.4689    0.4135   -2.0154 H   0  0  0  0  0  0  0  0  0  0  0  0
   -0.8667    3.2568   -4.6392 H   0  0  0  0  0  0  0  0  0  0  0  0
   -1.8050   -0.6674   -4.3688 H   0  0  0  0  0  0  0  0  0  0  0  0
  1  2  1  0  0  0  0
  1 19  1  0  0  0  0
  1 20  1  0  0  0  0
  1 21  1  0  0  0  0
  2  3  2  0  0  0  0
  2  4  2  0  0  0  0
  2  5  1  0  0  0  0
  5 10  2  0  0  0  0
  5  6  1  0  0  0  0
  6  7  2  0  0  0  0
  6 22  1  0  0  0  0
  7  8  1  0  0  0  0
  7 23  1  0  0  0  0
  8  9  2  0  0  0  0
  8 18  1  0  0  0  0
  9 10  1  0  0  0  0
  9 24  1  0  0  0  0
 10 11  1  0  0  0  0
 11 17  1  0  0  0  0
 11 12  1  0  0  0  0
 11 25  1  0  0  0  0
 12 13  2  0  0  0  0
 12 14  1  0  0  0  0
 14 15  1  0  0  0  0
 14 26  1  0  0  0  0
 15 16  2  0  0  0  0
 15 17  1  0  0  0  0
 17 27  1  0  0  0  0
M  END
$$$$
CHEMBL143872
  -OEChem-07121202273D

 37 40  0     0  0  0  0  0  0999 V2000
   -0.0165    1.3627    0.0095 C   0  0  0  0  0  0  0  0  0  0  0  0
    1.1654    2.0924    0.0022 C   0  0  0  0  0  0  0  0  0  0  0  0
    2.3861    1.4540   -0.0134 C   0  0  0  0  0  0  0  0  0  0  0  0
    2.4294    0.0605   -0.0213 C   0  0  0  0  0  0  0  0  0  0  0  0
    1.2244   -0.6786   -0.0133 C   0  0  0  0  0  0  0  0  0  0  0  0
    0.0021   -0.0041    0.0020 C   0  0  0  0  0  0  0  0  0  0  0  0
    1.3000   -2.1396   -0.0224 C   0  0  0  0  0  0  0  0  0  0  0  0
    2.4575   -2.7306   -0.0371 N   0  0  0  0  0  0  0  0  0  0  0  0
    3.6626   -2.0276   -0.0452 N   0  0  0  0  0  0  0  0  0  0  0  0
    3.6977   -0.6787   -0.0384 C   0  0  0  0  0  0  0  0  0  0  0  0
    4.7616   -0.0856   -0.0461 O   0  0  0  0  0  0  0  0  0  0  0  0
    4.9232   -2.7737   -0.0618 C   0  0  0  0  0  0  0  0  0  0  0  0
    5.3696   -3.0372    1.3533 C   0  0  0  0  0  0  0  0  0  0  0  0
    5.0834   -4.0910    2.1305 C   0  0  0  0  0  0  0  0  0  0  0  0
    5.6241   -4.1469    3.4797 C   0  0  0  0  0  0  0  0  0  0  0  0
    5.4568   -5.1496    4.4651 C   0  0  0  0  0  0  0  0  0  0  0  0
    6.0688   -4.9917    5.6867 C   0  0  0  0  0  0  0  0  0  0  0  0
    6.8372   -3.8671    5.9466 C   0  0  0  0  0  0  0  0  0  0  0  0
    6.9904   -2.9354    5.0256 N   0  0  0  0  0  0  0  0  0  0  0  0
    6.4256   -3.0417    3.8441 C   0  0  0  0  0  0  0  0  0  0  0  0
    6.4099   -2.0253    2.3880 S   0  0  0  0  0  0  0  0  0  0  0  0
    0.0356   -2.9595   -0.0143 C   0  0  0  0  0  0  0  0  0  0  0  0
    0.3870   -4.4249   -0.0262 C   0  0  0  0  0  0  0  0  0  0  0  0
    1.5559   -4.7714   -0.0401 O   0  0  0  0  0  0  0  0  0  0  0  0
   -0.4975   -5.2640   -0.0221 O   0  5  0  0  0  0  0  0  0  0  0  0
   -0.9631    1.8823    0.0259 H   0  0  0  0  0  0  0  0  0  0  0  0
    1.1269    3.1717    0.0083 H   0  0  0  0  0  0  0  0  0  0  0  0
    3.3010    2.0277   -0.0197 H   0  0  0  0  0  0  0  0  0  0  0  0
   -0.9242   -0.5594    0.0075 H   0  0  0  0  0  0  0  0  0  0  0  0
    4.7775   -3.7219   -0.5793 H   0  0  0  0  0  0  0  0  0  0  0  0
    5.6841   -2.1901   -0.5800 H   0  0  0  0  0  0  0  0  0  0  0  0
    4.4580   -4.8894    1.7594 H   0  0  0  0  0  0  0  0  0  0  0  0
    4.8577   -6.0247    4.2609 H   0  0  0  0  0  0  0  0  0  0  0  0
    5.9499   -5.7482    6.4483 H   0  0  0  0  0  0  0  0  0  0  0  0
    7.3130   -3.7531    6.9094 H   0  0  0  0  0  0  0  0  0  0  0  0
   -0.5398   -2.7311    0.8829 H   0  0  0  0  0  0  0  0  0  0  0  0
   -0.5578   -2.7210   -0.8970 H   0  0  0  0  0  0  0  0  0  0  0  0
  1  6  2  0  0  0  0
  1  2  1  0  0  0  0
  1 26  1  0  0  0  0
  2  3  2  0  0  0  0
  2 27  1  0  0  0  0
  3  4  1  0  0  0  0
  3 28  1  0  0  0  0
  4 10  1  0  0  0  0
  4  5  2  0  0  0  0
  5  6  1  0  0  0  0
  5  7  1  0  0  0  0
  6 29  1  0  0  0  0
  7  8  2  0  0  0  0
  7 22  1  0  0  0  0
  8  9  1  0  0  0  0
  9 10  1  0  0  0  0
  9 12  1  0  0  0  0
 10 11  2  0  0  0  0
 12 13  1  0  0  0  0
 12 30  1  0  0  0  0
 12 31  1  0  0  0  0
 13 21  1  0  0  0  0
 13 14  2  0  0  0  0
 14 15  1  0  0  0  0
 14 32  1  0  0  0  0
 15 20  2  0  0  0  0
 15 16  1  0  0  0  0
 16 17  2  0  0  0  0
 16 33  1  0  0  0  0
 17 18  1  0  0  0  0
 17 34  1  0  0  0  0
 18 19  2  0  0  0  0
 18 35  1  0  0  0  0
 19 20  1  0  0  0  0
 20 21  1  0  0  0  0
 22 23  1  0  0  0  0
 22 36  1  0  0  0  0
 22 37  1  0  0  0  0
 23 24  2  0  0  0  0
 23 25  1  0  0  0  0
M  CHG  1  25  -1
M  END
$$$$
CHEMBL159384
  -OEChem-07121202273D

 31 33  0     0  0  0  0  0  0999 V2000
   -0.0167    1.3835    0.0096 C   0  0  0  0  0  0  0  0  0  0  0  0
    1.1764    2.0815    0.0020 C   0  0  0  0  0  0  0  0  0  0  0  0
    2.3637    1.3909   -0.0130 C   0  0  0  0  0  0  0  0  0  0  0  0
    2.4181   -0.0212   -0.0211 C   0  0  0  0  0  0  0  0  0  0  0  0
    1.1829   -0.7038   -0.0130 C   0  0  0  0  0  0  0  0  0  0  0  0
    0.0021   -0.0041    0.0020 C   0  0  0  0  0  0  0  0  0  0  0  0
    1.1567   -2.4396   -0.0221 Cl  0  0  0  0  0  0  0  0  0  0  0  0
    3.6759   -0.5089   -0.0358 N   0  0  0  0  0  0  0  0  0  0  0  0
    4.7200    0.2671   -0.0416 C   0  0  0  0  0  0  0  0  0  0  0  0
    4.0836    1.8251   -0.0271 S   0  0  0  0  0  0  0  0  0  0  0  0
    6.1716   -0.1376   -0.0572 C   0  0  0  0  0  0  0  0  0  0  0  0
    6.6290   -0.2617   -1.4434 N   0  0  0  0  0  0  0  0  0  0  0  0
    6.5607   -1.3983   -2.1643 C   0  0  0  0  0  0  0  0  0  0  0  0
    6.1256   -2.4703   -1.8018 O   0  0  0  0  0  0  0  0  0  0  0  0
    7.1401   -1.0574   -3.5229 C   0  0  0  0  0  0  0  0  0  0  0  0
    7.5016    0.3652   -3.3980 N   0  0  0  0  0  0  0  0  0  0  0  0
    7.1610    0.7408   -2.1519 C   0  0  0  0  0  0  0  0  0  0  0  0
    7.3217    1.8644   -1.7173 O   0  0  0  0  0  0  0  0  0  0  0  0
    8.1094    1.2078   -4.4308 C   0  0  0  0  0  0  0  0  0  0  0  0
    7.0251    1.8656   -5.2448 C   0  0  0  0  0  0  0  0  0  0  0  0
    5.8532    1.6505   -4.9861 O   0  0  0  0  0  0  0  0  0  0  0  0
    7.3197    2.6129   -6.1620 O   0  5  0  0  0  0  0  0  0  0  0  0
   -0.9571    1.9144    0.0260 H   0  0  0  0  0  0  0  0  0  0  0  0
    1.1751    3.1614    0.0075 H   0  0  0  0  0  0  0  0  0  0  0  0
   -0.9326   -0.5451    0.0080 H   0  0  0  0  0  0  0  0  0  0  0  0
    6.7654    0.6195    0.4550 H   0  0  0  0  0  0  0  0  0  0  0  0
    6.2873   -1.0951    0.4507 H   0  0  0  0  0  0  0  0  0  0  0  0
    8.0246   -1.6615   -3.7251 H   0  0  0  0  0  0  0  0  0  0  0  0
    6.3929   -1.1960   -4.3042 H   0  0  0  0  0  0  0  0  0  0  0  0
    8.7249    1.9738   -3.9591 H   0  0  0  0  0  0  0  0  0  0  0  0
    8.7304    0.5930   -5.0823 H   0  0  0  0  0  0  0  0  0  0  0  0
  1  6  2  0  0  0  0
  1  2  1  0  0  0  0
  1 23  1  0  0  0  0
  2  3  2  0  0  0  0
  2 24  1  0  0  0  0
  3 10  1  0  0  0  0
  3  4  1  0  0  0  0
  4  5  2  0  0  0  0
  4  8  1  0  0  0  0
  5  6  1  0  0  0  0
  5  7  1  0  0  0  0
  6 25  1  0  0  0  0
  8  9  2  0  0  0  0
  9 10  1  0  0  0  0
  9 11  1  0  0  0  0
 11 12  1  0  0  0  0
 11 26  1  0  0  0  0
 11 27  1  0  0  0  0
 12 17  1  0  0  0  0
 12 13  1  0  0  0  0
 13 14  2  0  0  0  0
 13 15  1  0  0  0  0
 15 16  1  0  0  0  0
 15 28  1  0  0  0  0
 15 29  1  0  0  0  0
 16 17  1  0  0  0  0
 16 19  1  0  0  0  0
 17 18  2  0  0  0  0
 19 20  1  0  0  0  0
 19 30  1  0  0  0  0
 19 31  1  0  0  0  0
 20 21  2  0  0  0  0
 20 22  1  0  0  0  0
M  CHG  1  22  -1
M  END
$$$$
CHEMBL50
  -OEChem-07121202273D

 32 34  0     0  0  0  0  0  0999 V2000
    0.9741   -0.2755   -0.9644 C   0  0  0  0  0  0  0  0  0  0  0  0
    2.1569    0.4329   -0.9701 C   0  0  0  0  0  0  0  0  0  0  0  0
    2.3856    1.4156   -0.0177 C   0  0  0  0  0  0  0  0  0  0  0  0
    1.4203    1.6918    0.9495 C   0  0  0  0  0  0  0  0  0  0  0  0
    0.2328    0.9863    0.9617 C   0  0  0  0  0  0  0  0  0  0  0  0
    0.0021   -0.0041    0.0020 C   0  0  0  0  0  0  0  0  0  0  0  0
   -1.2637   -0.7605    0.0100 C   0  0  0  0  0  0  0  0  0  0  0  0
   -2.4363   -0.0759    0.1235 C   0  0  0  0  0  0  0  0  0  0  0  0
   -3.6628   -0.7894    0.1327 C   0  0  0  0  0  0  0  0  0  0  0  0
   -4.7327   -0.2102    0.2323 O   0  0  0  0  0  0  0  0  0  0  0  0
   -3.5946   -2.2549    0.0170 C   0  0  0  0  0  0  0  0  0  0  0  0
   -4.7561   -3.0387    0.0170 C   0  0  0  0  0  0  0  0  0  0  0  0
   -4.6504   -4.4123   -0.0941 C   0  0  0  0  0  0  0  0  0  0  0  0
   -3.3994   -5.0103   -0.2044 C   0  0  0  0  0  0  0  0  0  0  0  0
   -2.2463   -4.2416   -0.2047 C   0  0  0  0  0  0  0  0  0  0  0  0
   -2.3316   -2.8618   -0.0952 C   0  0  0  0  0  0  0  0  0  0  0  0
   -1.2182   -2.0992   -0.1003 O   0  0  0  0  0  0  0  0  0  0  0  0
   -3.3070   -6.3605   -0.3125 O   0  0  0  0  0  0  0  0  0  0  0  0
   -5.9758   -2.4535    0.1257 O   0  0  0  0  0  0  0  0  0  0  0  0
   -2.4312    1.2810    0.2275 O   0  0  0  0  0  0  0  0  0  0  0  0
    1.6480    2.6557    1.8815 O   0  0  0  0  0  0  0  0  0  0  0  0
    3.5534    2.1101   -0.0273 O   0  0  0  0  0  0  0  0  0  0  0  0
    0.7971   -1.0371   -1.7094 H   0  0  0  0  0  0  0  0  0  0  0  0
    2.9075    0.2221   -1.7176 H   0  0  0  0  0  0  0  0  0  0  0  0
   -0.5155    1.1988    1.7108 H   0  0  0  0  0  0  0  0  0  0  0  0
   -5.5413   -5.0229   -0.0948 H   0  0  0  0  0  0  0  0  0  0  0  0
   -1.2805   -4.7174   -0.2903 H   0  0  0  0  0  0  0  0  0  0  0  0
   -3.3257   -6.6843   -1.2235 H   0  0  0  0  0  0  0  0  0  0  0  0
   -6.3751   -2.2160   -0.7224 H   0  0  0  0  0  0  0  0  0  0  0  0
   -3.3120    1.6729    0.3033 H   0  0  0  0  0  0  0  0  0  0  0  0
    1.3508    3.5370    1.6166 H   0  0  0  0  0  0  0  0  0  0  0  0
    3.5287    2.9137   -0.5647 H   0  0  0  0  0  0  0  0  0  0  0  0
  1  6  2  0  0  0  0
  1  2  1  0  0  0  0
  1 23  1  0  0  0  0
  2  3  2  0  0  0  0
  2 24  1  0  0  0  0
  3  4  1  0  0  0  0
  3 22  1  0  0  0  0
  4  5  2  0  0  0  0
  4 21  1  0  0  0  0
  5  6  1  0  0  0  0
  5 25  1  0  0  0  0
  6  7  1  0  0  0  0
  7 17  1  0  0  0  0
  7  8  2  0  0  0  0
  8  9  1  0  0  0  0
  8 20  1  0  0  0  0
  9 10  2  0  0  0  0
  9 11  1  0  0  0  0
 11 16  2  0  0  0  0
 11 12  1  0  0  0  0
 12 13  2  0  0  0  0
 12 19  1  0  0  0  0
 13 14  1  0  0  0  0
 13 26  1  0  0  0  0
 14 15  2  0  0  0  0
 14 18  1  0  0  0  0
 15 16  1  0  0  0  0
 15 27  1  0  0  0  0
 16 17  1  0  0  0  0
 18 28  1  0  0  0  0
 19 29  1  0  0  0  0
 20 30  1  0  0  0  0
 21 31  1  0  0  0  0
 22 32  1  0  0  0  0
M  END
$$$$
CHEMBL30993
  -OEChem-07121202273D

 39 41  0     1  0  0  0  0  0999 V2000
   -0.0184    1.5028    0.0103 C   0  0  0  0  0  0  0  0  0  0  0  0
    0.0021   -0.0041    0.0020 C   0  0  0  0  0  0  0  0  0  0  0  0
    0.0057   -0.6887   -1.1989 C   0  0  0  0  0  0  0  0  0  0  0  0
    0.0245   -2.0709   -1.2065 C   0  0  0  0  0  0  0  0  0  0  0  0
    0.0400   -2.7685   -0.0132 C   0  0  0  0  0  0  0  0  0  0  0  0
    0.0373   -2.0839    1.1877 C   0  0  0  0  0  0  0  0  0  0  0  0
    0.0229   -0.7016    1.1953 C   0  0  0  0  0  0  0  0  0  0  0  0
    0.0595   -4.2753   -0.0215 C   0  0  0  0  0  0  0  0  0  0  0  0
    1.4468   -4.7457   -0.0317 N   0  0  0  0  0  0  0  0  0  0  0  0
    2.1795   -4.9842   -1.1964 C   0  0  0  0  0  0  0  0  0  0  0  0
    1.8251   -4.8537   -2.5378 C   0  0  0  0  0  0  0  0  0  0  0  0
    2.7369   -5.1547   -3.5280 C   0  0  0  0  0  0  0  0  0  0  0  0
    4.0101   -5.5889   -3.1984 C   0  0  0  0  0  0  0  0  0  0  0  0
    4.3688   -5.7208   -1.8663 C   0  0  0  0  0  0  0  0  0  0  0  0
    3.4591   -5.4200   -0.8776 C   0  0  0  0  0  0  0  0  0  0  0  0
    3.5322   -5.4572    0.6316 C   0  0  2  0  0  0  0  0  0  0  0  0
    2.1627   -4.9919    1.0784 C   0  0  0  0  0  0  0  0  0  0  0  0
    1.7822   -4.8672    2.2233 O   0  0  0  0  0  0  0  0  0  0  0  0
    4.6114   -4.4990    1.1397 C   0  0  2  0  0  0  0  0  0  0  0  0
    5.9176   -4.8940    0.5879 C   0  0  0  0  0  0  0  0  0  0  0  0
    6.9257   -5.1989    0.1621 N   0  0  0  0  0  0  0  0  0  0  0  0
    4.6643   -4.5545    2.6447 C   0  0  0  0  0  0  0  0  0  0  0  0
    3.9089   -5.2921    3.2545 O   0  0  0  0  0  0  0  0  0  0  0  0
    5.4625   -3.8618    3.2526 O   0  5  0  0  0  0  0  0  0  0  0  0
    4.8991   -5.8832   -4.1721 F   0  0  0  0  0  0  0  0  0  0  0  0
    1.0042    1.8801    0.0026 H   0  0  0  0  0  0  0  0  0  0  0  0
   -0.5455    1.8639   -0.8728 H   0  0  0  0  0  0  0  0  0  0  0  0
   -0.5286    1.8543    0.9071 H   0  0  0  0  0  0  0  0  0  0  0  0
   -0.0064   -0.1436   -2.1312 H   0  0  0  0  0  0  0  0  0  0  0  0
    0.0266   -2.6057   -2.1448 H   0  0  0  0  0  0  0  0  0  0  0  0
    0.0491   -2.6289    2.1200 H   0  0  0  0  0  0  0  0  0  0  0  0
    0.0245   -0.1667    2.1335 H   0  0  0  0  0  0  0  0  0  0  0  0
   -0.4447   -4.6501    0.8693 H   0  0  0  0  0  0  0  0  0  0  0  0
   -0.4546   -4.6404   -0.9106 H   0  0  0  0  0  0  0  0  0  0  0  0
    0.8339   -4.5163   -2.8026 H   0  0  0  0  0  0  0  0  0  0  0  0
    2.4564   -5.0515   -4.5659 H   0  0  0  0  0  0  0  0  0  0  0  0
    5.3603   -6.0594   -1.6042 H   0  0  0  0  0  0  0  0  0  0  0  0
    3.7265   -6.4717    0.9796 H   0  0  0  0  0  0  0  0  0  0  0  0
    4.3747   -3.4836    0.8216 H   0  0  0  0  0  0  0  0  0  0  0  0
  1  2  1  0  0  0  0
  1 26  1  0  0  0  0
  1 27  1  0  0  0  0
  1 28  1  0  0  0  0
  2  7  2  0  0  0  0
  2  3  1  0  0  0  0
  3  4  2  0  0  0  0
  3 29  1  0  0  0  0
  4  5  1  0  0  0  0
  4 30  1  0  0  0  0
  5  6  2  0  0  0  0
  5  8  1  0  0  0  0
  6  7  1  0  0  0  0
  6 31  1  0  0  0  0
  7 32  1  0  0  0  0
  8  9  1  0  0  0  0
  8 33  1  0  0  0  0
  8 34  1  0  0  0  0
  9 17  1  0  0  0  0
  9 10  1  0  0  0  0
 10 15  2  0  0  0  0
 10 11  1  0  0  0  0
 11 12  2  0  0  0  0
 11 35  1  0  0  0  0
 12 13  1  0  0  0  0
 12 36  1  0  0  0  0
 13 14  2  0  0  0  0
 13 25  1  0  0  0  0
 14 15  1  0  0  0  0
 14 37  1  0  0  0  0
 15 16  1  0  0  0  0
 16 17  1  0  0  0  0
 16 19  1  0  0  0  0
 16 38  1  0  0  0  0
 17 18  2  0  0  0  0
 19 20  1  0  0  0  0
 19 22  1  0  0  0  0
 19 39  1  0  0  0  0
 20 21  3  0  0  0  0
 22 23  2  0  0  0  0
 22 24  1  0  0  0  0
M  CHG  1  24  -1
M  END
$$$$
CHEMBL30993
  -OEChem-07121202273D

 39 41  0     1  0  0  0  0  0999 V2000
    3.8767    3.0052   -0.2312 C   0  0  0  0  0  0  0  0  0  0  0  0
    3.0895    1.7211   -0.1789 C   0  0  0  0  0  0  0  0  0  0  0  0
    2.7018    1.0999   -1.3514 C   0  0  0  0  0  0  0  0  0  0  0  0
    1.9798   -0.0779   -1.3035 C   0  0  0  0  0  0  0  0  0  0  0  0
    1.6459   -0.6348   -0.0831 C   0  0  0  0  0  0  0  0  0  0  0  0
    2.0344   -0.0141    1.0894 C   0  0  0  0  0  0  0  0  0  0  0  0
    2.7602    1.1615    1.0414 C   0  0  0  0  0  0  0  0  0  0  0  0
    0.8579   -1.9183   -0.0308 C   0  0  0  0  0  0  0  0  0  0  0  0
    1.7795   -3.0571   -0.0218 N   0  0  0  0  0  0  0  0  0  0  0  0
    2.2469   -3.6896   -1.1757 C   0  0  0  0  0  0  0  0  0  0  0  0
    1.9885   -3.4358   -2.5213 C   0  0  0  0  0  0  0  0  0  0  0  0
    2.5777   -4.2108   -3.4985 C   0  0  0  0  0  0  0  0  0  0  0  0
    3.4293   -5.2464   -3.1513 C   0  0  0  0  0  0  0  0  0  0  0  0
    3.6904   -5.5041   -1.8149 C   0  0  0  0  0  0  0  0  0  0  0  0
    3.1029   -4.7303   -0.8393 C   0  0  0  0  0  0  0  0  0  0  0  0
    3.1769   -4.7493    0.6702 C   0  0  2  0  0  0  0  0  0  0  0  0
    2.2768   -3.6095    1.0976 C   0  0  0  0  0  0  0  0  0  0  0  0
    2.0461   -3.2619    2.2365 O   0  0  0  0  0  0  0  0  0  0  0  0
    4.6114   -4.4990    1.1397 C   0  0  1  0  0  0  0  0  0  0  0  0
    5.0529   -3.1715    0.6818 C   0  0  0  0  0  0  0  0  0  0  0  0
    5.3936   -2.1470    0.3284 N   0  0  0  0  0  0  0  0  0  0  0  0
    4.6643   -4.5545    2.6447 C   0  0  0  0  0  0  0  0  0  0  0  0
    3.9741   -5.3570    3.2498 O   0  0  0  0  0  0  0  0  0  0  0  0
    5.3973   -3.7969    3.2573 O   0  5  0  0  0  0  0  0  0  0  0  0
    4.0031   -6.0031   -4.1122 F   0  0  0  0  0  0  0  0  0  0  0  0
    4.9423    2.7774   -0.2538 H   0  0  0  0  0  0  0  0  0  0  0  0
    3.6049    3.5616   -1.1282 H   0  0  0  0  0  0  0  0  0  0  0  0
    3.6520    3.6052    0.6506 H   0  0  0  0  0  0  0  0  0  0  0  0
    2.9626    1.5350   -2.3048 H   0  0  0  0  0  0  0  0  0  0  0  0
    1.6762   -0.5629   -2.2195 H   0  0  0  0  0  0  0  0  0  0  0  0
    1.7733   -0.4490    2.0428 H   0  0  0  0  0  0  0  0  0  0  0  0
    3.0669    1.6445    1.9574 H   0  0  0  0  0  0  0  0  0  0  0  0
    0.2506   -1.9352    0.8741 H   0  0  0  0  0  0  0  0  0  0  0  0
    0.2096   -1.9825   -0.9047 H   0  0  0  0  0  0  0  0  0  0  0  0
    1.3250   -2.6304   -2.7998 H   0  0  0  0  0  0  0  0  0  0  0  0
    2.3736   -4.0093   -4.5397 H   0  0  0  0  0  0  0  0  0  0  0  0
    4.3535   -6.3107   -1.5391 H   0  0  0  0  0  0  0  0  0  0  0  0
    2.8070   -5.6981    1.0587 H   0  0  0  0  0  0  0  0  0  0  0  0
    5.2682   -5.2635    0.7246 H   0  0  0  0  0  0  0  0  0  0  0  0
  1  2  1  0  0  0  0
  1 26  1  0  0  0  0
  1 27  1  0  0  0  0
  1 28  1  0  0  0  0
  2  7  2  0  0  0  0
  2  3  1  0  0  0  0
  3  4  2  0  0  0  0
  3 29  1  0  0  0  0
  4  5  1  0  0  0  0
  4 30  1  0  0  0  0
  5  6  2  0  0  0  0
  5  8  1  0  0  0  0
  6  7  1  0  0  0  0
  6 31  1  0  0  0  0
  7 32  1  0  0  0  0
  8  9  1  0  0  0  0
  8 33  1  0  0  0  0
  8 34  1  0  0  0  0
  9 17  1  0  0  0  0
  9 10  1  0  0  0  0
 10 15  2  0  0  0  0
 10 11  1  0  0  0  0
 11 12  2  0  0  0  0
 11 35  1  0  0  0  0
 12 13  1  0  0  0  0
 12 36  1  0  0  0  0
 13 14  2  0  0  0  0
 13 25  1  0  0  0  0
 14 15  1  0  0  0  0
 14 37  1  0  0  0  0
 15 16  1  0  0  0  0
 16 17  1  0  0  0  0
 16 19  1  0  0  0  0
 16 38  1  0  0  0  0
 17 18  2  0  0  0  0
 19 20  1  0  0  0  0
 19 22  1  0  0  0  0
 19 39  1  0  0  0  0
 20 21  3  0  0  0  0
 22 23  2  0  0  0  0
 22 24  1  0  0  0  0
M  CHG  1  24  -1
M  END
$$$$
CHEMBL30993
  -OEChem-07121202273D

 39 41  0     1  0  0  0  0  0999 V2000
   -4.6659   -3.1199    0.6327 C   0  0  0  0  0  0  0  0  0  0  0  0
   -3.6482   -4.2228    0.4952 C   0  0  0  0  0  0  0  0  0  0  0  0
   -3.2345   -4.6289   -0.7597 C   0  0  0  0  0  0  0  0  0  0  0  0
   -2.3009   -5.6405   -0.8859 C   0  0  0  0  0  0  0  0  0  0  0  0
   -1.7808   -6.2458    0.2428 C   0  0  0  0  0  0  0  0  0  0  0  0
   -2.1939   -5.8391    1.4977 C   0  0  0  0  0  0  0  0  0  0  0  0
   -3.1242   -4.8245    1.6240 C   0  0  0  0  0  0  0  0  0  0  0  0
   -0.7638   -7.3494    0.1052 C   0  0  0  0  0  0  0  0  0  0  0  0
    0.5831   -6.7734    0.0925 N   0  0  0  0  0  0  0  0  0  0  0  0
    1.2448   -6.3662   -1.0679 C   0  0  0  0  0  0  0  0  0  0  0  0
    0.8440   -6.3948   -2.4022 C   0  0  0  0  0  0  0  0  0  0  0  0
    1.6873   -5.9291   -3.3894 C   0  0  0  0  0  0  0  0  0  0  0  0
    2.9376   -5.4303   -3.0637 C   0  0  0  0  0  0  0  0  0  0  0  0
    3.3422   -5.3991   -1.7386 C   0  0  0  0  0  0  0  0  0  0  0  0
    2.5006   -5.8634   -0.7529 C   0  0  0  0  0  0  0  0  0  0  0  0
    2.6358   -5.9667    0.7489 C   0  0  1  0  0  0  0  0  0  0  0  0
    1.3218   -6.5707    1.1965 C   0  0  0  0  0  0  0  0  0  0  0  0
    0.9976   -6.8260    2.3370 O   0  0  0  0  0  0  0  0  0  0  0  0
    3.8049   -6.8812    1.1201 C   0  0  2  0  0  0  0  0  0  0  0  0
    3.5166   -8.2530    0.6709 C   0  0  0  0  0  0  0  0  0  0  0  0
    3.2941   -9.3117    0.3242 N   0  0  0  0  0  0  0  0  0  0  0  0
    3.9950   -6.8717    2.6150 C   0  0  0  0  0  0  0  0  0  0  0  0
    3.8297   -5.8404    3.2440 O   0  0  0  0  0  0  0  0  0  0  0  0
    4.3142   -7.8953    3.1955 O   0  5  0  0  0  0  0  0  0  0  0  0
    3.7601   -4.9762   -4.0345 F   0  0  0  0  0  0  0  0  0  0  0  0
   -4.1550   -2.1585    0.6855 H   0  0  0  0  0  0  0  0  0  0  0  0
   -5.3320   -3.1304   -0.2300 H   0  0  0  0  0  0  0  0  0  0  0  0
   -5.2470   -3.2730    1.5422 H   0  0  0  0  0  0  0  0  0  0  0  0
   -3.6408   -4.1560   -1.6416 H   0  0  0  0  0  0  0  0  0  0  0  0
   -1.9782   -5.9583   -1.8664 H   0  0  0  0  0  0  0  0  0  0  0  0
   -1.7878   -6.3122    2.3796 H   0  0  0  0  0  0  0  0  0  0  0  0
   -3.4442   -4.5042    2.6045 H   0  0  0  0  0  0  0  0  0  0  0  0
   -0.8572   -8.0364    0.9463 H   0  0  0  0  0  0  0  0  0  0  0  0
   -0.9370   -7.8891   -0.8258 H   0  0  0  0  0  0  0  0  0  0  0  0
   -0.1293   -6.7829   -2.6641 H   0  0  0  0  0  0  0  0  0  0  0  0
    1.3710   -5.9538   -4.4218 H   0  0  0  0  0  0  0  0  0  0  0  0
    4.3164   -5.0114   -1.4796 H   0  0  0  0  0  0  0  0  0  0  0  0
    2.7681   -4.9784    1.1892 H   0  0  0  0  0  0  0  0  0  0  0  0
    4.7137   -6.5238    0.6360 H   0  0  0  0  0  0  0  0  0  0  0  0
  1  2  1  0  0  0  0
  1 26  1  0  0  0  0
  1 27  1  0  0  0  0
  1 28  1  0  0  0  0
  2  7  2  0  0  0  0
  2  3  1  0  0  0  0
  3  4  2  0  0  0  0
  3 29  1  0  0  0  0
  4  5  1  0  0  0  0
  4 30  1  0  0  0  0
  5  6  2  0  0  0  0
  5  8  1  0  0  0  0
  6  7  1  0  0  0  0
  6 31  1  0  0  0  0
  7 32  1  0  0  0  0
  8  9  1  0  0  0  0
  8 33  1  0  0  0  0
  8 34  1  0  0  0  0
  9 17  1  0  0  0  0
  9 10  1  0  0  0  0
 10 15  2  0  0  0  0
 10 11  1  0  0  0  0
 11 12  2  0  0  0  0
 11 35  1  0  0  0  0
 12 13  1  0  0  0  0
 12 36  1  0  0  0  0
 13 14  2  0  0  0  0
 13 25  1  0  0  0  0
 14 15  1  0  0  0  0
 14 37  1  0  0  0  0
 15 16  1  0  0  0  0
 16 17  1  0  0  0  0
 16 19  1  0  0  0  0
 16 38  1  0  0  0  0
 17 18  2  0  0  0  0
 19 20  1  0  0  0  0
 19 22  1  0  0  0  0
 19 39  1  0  0  0  0
 20 21  3  0  0  0  0
 22 23  2  0  0  0  0
 22 24  1  0  0  0  0
M  CHG  1  24  -1
M  END
$$$$
CHEMBL30993
  -OEChem-07121202273D

 39 41  0     1  0  0  0  0  0999 V2000
   -0.0184    1.5028    0.0103 C   0  0  0  0  0  0  0  0  0  0  0  0
    0.0021   -0.0041    0.0020 C   0  0  0  0  0  0  0  0  0  0  0  0
    0.0057   -0.6887   -1.1989 C   0  0  0  0  0  0  0  0  0  0  0  0
    0.0245   -2.0709   -1.2065 C   0  0  0  0  0  0  0  0  0  0  0  0
    0.0400   -2.7685   -0.0132 C   0  0  0  0  0  0  0  0  0  0  0  0
    0.0373   -2.0839    1.1877 C   0  0  0  0  0  0  0  0  0  0  0  0
    0.0229   -0.7016    1.1953 C   0  0  0  0  0  0  0  0  0  0  0  0
    0.0595   -4.2753   -0.0215 C   0  0  0  0  0  0  0  0  0  0  0  0
    1.4468   -4.7457   -0.0317 N   0  0  0  0  0  0  0  0  0  0  0  0
    2.1795   -4.9842   -1.1964 C   0  0  0  0  0  0  0  0  0  0  0  0
    1.8251   -4.8537   -2.5378 C   0  0  0  0  0  0  0  0  0  0  0  0
    2.7369   -5.1547   -3.5280 C   0  0  0  0  0  0  0  0  0  0  0  0
    4.0101   -5.5889   -3.1984 C   0  0  0  0  0  0  0  0  0  0  0  0
    4.3688   -5.7208   -1.8663 C   0  0  0  0  0  0  0  0  0  0  0  0
    3.4591   -5.4200   -0.8776 C   0  0  0  0  0  0  0  0  0  0  0  0
    3.5322   -5.4572    0.6316 C   0  0  1  0  0  0  0  0  0  0  0  0
    2.1627   -4.9919    1.0784 C   0  0  0  0  0  0  0  0  0  0  0  0
    1.7822   -4.8672    2.2233 O   0  0  0  0  0  0  0  0  0  0  0  0
    3.8049   -6.8812    1.1201 C   0  0  1  0  0  0  0  0  0  0  0  0
    5.0852   -7.3527    0.5677 C   0  0  0  0  0  0  0  0  0  0  0  0
    6.0733   -7.7166    0.1414 N   0  0  0  0  0  0  0  0  0  0  0  0
    3.8731   -6.8914    2.6255 C   0  0  0  0  0  0  0  0  0  0  0  0
    3.7180   -5.8557    3.2498 O   0  0  0  0  0  0  0  0  0  0  0  0
    4.0834   -7.9354    3.2192 O   0  5  0  0  0  0  0  0  0  0  0  0
    4.8991   -5.8832   -4.1721 F   0  0  0  0  0  0  0  0  0  0  0  0
    1.0042    1.8801    0.0026 H   0  0  0  0  0  0  0  0  0  0  0  0
   -0.5455    1.8639   -0.8728 H   0  0  0  0  0  0  0  0  0  0  0  0
   -0.5286    1.8543    0.9071 H   0  0  0  0  0  0  0  0  0  0  0  0
   -0.0064   -0.1436   -2.1312 H   0  0  0  0  0  0  0  0  0  0  0  0
    0.0266   -2.6057   -2.1448 H   0  0  0  0  0  0  0  0  0  0  0  0
    0.0491   -2.6289    2.1200 H   0  0  0  0  0  0  0  0  0  0  0  0
    0.0245   -0.1667    2.1335 H   0  0  0  0  0  0  0  0  0  0  0  0
   -0.4447   -4.6501    0.8693 H   0  0  0  0  0  0  0  0  0  0  0  0
   -0.4546   -4.6404   -0.9106 H   0  0  0  0  0  0  0  0  0  0  0  0
    0.8339   -4.5163   -2.8026 H   0  0  0  0  0  0  0  0  0  0  0  0
    2.4564   -5.0515   -4.5659 H   0  0  0  0  0  0  0  0  0  0  0  0
    5.3603   -6.0594   -1.6042 H   0  0  0  0  0  0  0  0  0  0  0  0
    4.3010   -4.7745    0.9936 H   0  0  0  0  0  0  0  0  0  0  0  0
    3.0017   -7.5392    0.7883 H   0  0  0  0  0  0  0  0  0  0  0  0
  1  2  1  0  0  0  0
  1 26  1  0  0  0  0
  1 27  1  0  0  0  0
  1 28  1  0  0  0  0
  2  7  2  0  0  0  0
  2  3  1  0  0  0  0
  3  4  2  0  0  0  0
  3 29  1  0  0  0  0
  4  5  1  0  0  0  0
  4 30  1  0  0  0  0
  5  6  2  0  0  0  0
  5  8  1  0  0  0  0
  6  7  1  0  0  0  0
  6 31  1  0  0  0  0
  7 32  1  0  0  0  0
  8  9  1  0  0  0  0
  8 33  1  0  0  0  0
  8 34  1  0  0  0  0
  9 17  1  0  0  0  0
  9 10  1  0  0  0  0
 10 15  2  0  0  0  0
 10 11  1  0  0  0  0
 11 12  2  0  0  0  0
 11 35  1  0  0  0  0
 12 13  1  0  0  0  0
 12 36  1  0  0  0  0
 13 14  2  0  0  0  0
 13 25  1  0  0  0  0
 14 15  1  0  0  0  0
 14 37  1  0  0  0  0
 15 16  1  0  0  0  0
 16 17  1  0  0  0  0
 16 19  1  0  0  0  0
 16 38  1  0  0  0  0
 17 18  2  0  0  0  0
 19 20  1  0  0  0  0
 19 22  1  0  0  0  0
 19 39  1  0  0  0  0
 20 21  3  0  0  0  0
 22 23  2  0  0  0  0
 22 24  1  0  0  0  0
M  CHG  1  24  -1
M  END
$$$$
CHEMBL45352
  -OEChem-07121202273D

 45 47  0     0  0  0  0  0  0999 V2000
   -0.0167    1.3781    0.0096 C   0  0  0  0  0  0  0  0  0  0  0  0
    1.1709    2.0855    0.0021 C   0  0  0  0  0  0  0  0  0  0  0  0
    2.3773    1.4107   -0.0130 C   0  0  0  0  0  0  0  0  0  0  0  0
    2.3960    0.0285   -0.0201 C   0  0  0  0  0  0  0  0  0  0  0  0
    1.2084   -0.6789   -0.0117 C   0  0  0  0  0  0  0  0  0  0  0  0
    0.0021   -0.0041    0.0020 C   0  0  0  0  0  0  0  0  0  0  0  0
    3.7112   -0.7071   -0.0376 C   0  0  0  0  0  0  0  0  0  0  0  0
    4.1714   -0.9633    1.3989 C   0  0  0  0  0  0  0  0  0  0  0  0
    5.4498   -1.6784    1.3820 N   0  0  0  0  0  0  0  0  0  0  0  0
    6.7084   -0.9287    1.3725 C   0  0  0  0  0  0  0  0  0  0  0  0
    7.1549   -0.6788    2.7900 C   0  0  0  0  0  0  0  0  0  0  0  0
    6.4839   -1.0888    3.7217 O   0  0  0  0  0  0  0  0  0  0  0  0
    8.1871   -0.0664    3.0050 O   0  5  0  0  0  0  0  0  0  0  0  0
    5.4681   -3.0260    1.3750 C   0  0  0  0  0  0  0  0  0  0  0  0
    4.4262   -3.6467    1.3829 O   0  0  0  0  0  0  0  0  0  0  0  0
    6.7833   -3.7617    1.3576 C   0  0  0  0  0  0  0  0  0  0  0  0
    6.5241   -5.2696    1.3528 C   0  0  0  0  0  0  0  0  0  0  0  0
    7.8392   -6.0052    1.3353 C   0  0  0  0  0  0  0  0  0  0  0  0
    8.5433   -6.4047    2.3538 N   0  0  0  0  0  0  0  0  0  0  0  0
    9.7139   -7.0593    2.2059 C   0  0  0  0  0  0  0  0  0  0  0  0
   10.6005   -7.5603    3.1851 C   0  0  0  0  0  0  0  0  0  0  0  0
   11.7563   -8.2050    2.8135 C   0  0  0  0  0  0  0  0  0  0  0  0
   12.0874   -8.3833    1.4754 C   0  0  0  0  0  0  0  0  0  0  0  0
   11.2387   -7.9035    0.4935 C   0  0  0  0  0  0  0  0  0  0  0  0
   10.0797   -7.2570    0.8566 C   0  0  0  0  0  0  0  0  0  0  0  0
    8.7258   -6.5023   -0.0062 S   0  0  0  0  0  0  0  0  0  0  0  0
   11.5455   -8.0689   -0.8117 F   0  0  0  0  0  0  0  0  0  0  0  0
   12.5881   -8.6746    3.7689 F   0  0  0  0  0  0  0  0  0  0  0  0
   10.3107   -7.4045    4.4954 F   0  0  0  0  0  0  0  0  0  0  0  0
   -0.9591    1.9053    0.0259 H   0  0  0  0  0  0  0  0  0  0  0  0
    1.1563    3.1654    0.0076 H   0  0  0  0  0  0  0  0  0  0  0  0
    3.3051    1.9634   -0.0196 H   0  0  0  0  0  0  0  0  0  0  0  0
    1.2231   -1.7588   -0.0176 H   0  0  0  0  0  0  0  0  0  0  0  0
   -0.9258   -0.5567    0.0082 H   0  0  0  0  0  0  0  0  0  0  0  0
    3.5884   -1.6586   -0.5549 H   0  0  0  0  0  0  0  0  0  0  0  0
    4.4573   -0.1052   -0.5563 H   0  0  0  0  0  0  0  0  0  0  0  0
    4.2941   -0.0118    1.9163 H   0  0  0  0  0  0  0  0  0  0  0  0
    3.4252   -1.5652    1.9176 H   0  0  0  0  0  0  0  0  0  0  0  0
    7.4706   -1.5048    0.8478 H   0  0  0  0  0  0  0  0  0  0  0  0
    6.5598    0.0244    0.8650 H   0  0  0  0  0  0  0  0  0  0  0  0
    7.3418   -3.4862    0.4631 H   0  0  0  0  0  0  0  0  0  0  0  0
    7.3605   -3.4951    2.2429 H   0  0  0  0  0  0  0  0  0  0  0  0
    5.9655   -5.5451    2.2473 H   0  0  0  0  0  0  0  0  0  0  0  0
    5.9469   -5.5362    0.4674 H   0  0  0  0  0  0  0  0  0  0  0  0
   13.0005   -8.8923    1.2040 H   0  0  0  0  0  0  0  0  0  0  0  0
  1  6  2  0  0  0  0
  1  2  1  0  0  0  0
  1 30  1  0  0  0  0
  2  3  2  0  0  0  0
  2 31  1  0  0  0  0
  3  4  1  0  0  0  0
  3 32  1  0  0  0  0
  4  5  2  0  0  0  0
  4  7  1  0  0  0  0
  5  6  1  0  0  0  0
  5 33  1  0  0  0  0
  6 34  1  0  0  0  0
  7  8  1  0  0  0  0
  7 35  1  0  0  0  0
  7 36  1  0  0  0  0
  8  9  1  0  0  0  0
  8 37  1  0  0  0  0
  8 38  1  0  0  0  0
  9 10  1  0  0  0  0
  9 14  1  0  0  0  0
 10 11  1  0  0  0  0
 10 39  1  0  0  0  0
 10 40  1  0  0  0  0
 11 12  2  0  0  0  0
 11 13  1  0  0  0  0
 14 15  2  0  0  0  0
 14 16  1  0  0  0  0
 16 17  1  0  0  0  0
 16 41  1  0  0  0  0
 16 42  1  0  0  0  0
 17 18  1  0  0  0  0
 17 43  1  0  0  0  0
 17 44  1  0  0  0  0
 18 26  1  0  0  0  0
 18 19  2  0  0  0  0
 19 20  1  0  0  0  0
 20 25  2  0  0  0  0
 20 21  1  0  0  0  0
 21 22  2  0  0  0  0
 21 29  1  0  0  0  0
 22 23  1  0  0  0  0
 22 28  1  0  0  0  0
 23 24  2  0  0  0  0
 23 45  1  0  0  0  0
 24 25  1  0  0  0  0
 24 27  1  0  0  0  0
 25 26  1  0  0  0  0
M  CHG  1  13  -1
M  END
$$$$
CHEMBL20207
  -OEChem-07121202273D

 37 40  0     0  0  0  0  0  0999 V2000
   -0.0165    1.3627    0.0095 C   0  0  0  0  0  0  0  0  0  0  0  0
    1.1654    2.0924    0.0022 C   0  0  0  0  0  0  0  0  0  0  0  0
    2.3861    1.4540   -0.0134 C   0  0  0  0  0  0  0  0  0  0  0  0
    2.4294    0.0605   -0.0213 C   0  0  0  0  0  0  0  0  0  0  0  0
    1.2244   -0.6786   -0.0133 C   0  0  0  0  0  0  0  0  0  0  0  0
    0.0021   -0.0041    0.0020 C   0  0  0  0  0  0  0  0  0  0  0  0
    1.3000   -2.1396   -0.0224 C   0  0  0  0  0  0  0  0  0  0  0  0
    2.4575   -2.7306   -0.0371 N   0  0  0  0  0  0  0  0  0  0  0  0
    3.6626   -2.0276   -0.0452 N   0  0  0  0  0  0  0  0  0  0  0  0
    3.6977   -0.6787   -0.0384 C   0  0  0  0  0  0  0  0  0  0  0  0
    4.7616   -0.0856   -0.0461 O   0  0  0  0  0  0  0  0  0  0  0  0
    4.9232   -2.7737   -0.0618 C   0  0  0  0  0  0  0  0  0  0  0  0
    5.3696   -3.0372    1.3533 C   0  0  0  0  0  0  0  0  0  0  0  0
    5.0869   -4.0641    2.1007 N   0  0  0  0  0  0  0  0  0  0  0  0
    5.5517   -4.1853    3.3612 C   0  0  0  0  0  0  0  0  0  0  0  0
    5.3510   -5.2147    4.3049 C   0  0  0  0  0  0  0  0  0  0  0  0
    5.9179   -5.1420    5.5403 C   0  0  0  0  0  0  0  0  0  0  0  0
    6.7072   -4.0639    5.9162 C   0  0  0  0  0  0  0  0  0  0  0  0
    6.9276   -3.0350    5.0182 C   0  0  0  0  0  0  0  0  0  0  0  0
    6.3593   -3.0996    3.7681 C   0  0  0  0  0  0  0  0  0  0  0  0
    6.3524   -2.0732    2.3215 S   0  0  0  0  0  0  0  0  0  0  0  0
    7.9107   -1.6759    5.4656 Cl  0  0  0  0  0  0  0  0  0  0  0  0
    0.0356   -2.9595   -0.0143 C   0  0  0  0  0  0  0  0  0  0  0  0
    0.3870   -4.4249   -0.0262 C   0  0  0  0  0  0  0  0  0  0  0  0
    1.5559   -4.7714   -0.0401 O   0  0  0  0  0  0  0  0  0  0  0  0
   -0.4975   -5.2640   -0.0221 O   0  5  0  0  0  0  0  0  0  0  0  0
   -0.9631    1.8823    0.0259 H   0  0  0  0  0  0  0  0  0  0  0  0
    1.1269    3.1717    0.0083 H   0  0  0  0  0  0  0  0  0  0  0  0
    3.3010    2.0277   -0.0197 H   0  0  0  0  0  0  0  0  0  0  0  0
   -0.9242   -0.5594    0.0075 H   0  0  0  0  0  0  0  0  0  0  0  0
    4.7775   -3.7219   -0.5793 H   0  0  0  0  0  0  0  0  0  0  0  0
    5.6841   -2.1901   -0.5800 H   0  0  0  0  0  0  0  0  0  0  0  0
    4.7419   -6.0678    4.0449 H   0  0  0  0  0  0  0  0  0  0  0  0
    5.7491   -5.9425    6.2453 H   0  0  0  0  0  0  0  0  0  0  0  0
    7.1457   -4.0284    6.9025 H   0  0  0  0  0  0  0  0  0  0  0  0
   -0.5398   -2.7311    0.8829 H   0  0  0  0  0  0  0  0  0  0  0  0
   -0.5578   -2.7210   -0.8970 H   0  0  0  0  0  0  0  0  0  0  0  0
  1  6  2  0  0  0  0
  1  2  1  0  0  0  0
  1 27  1  0  0  0  0
  2  3  2  0  0  0  0
  2 28  1  0  0  0  0
  3  4  1  0  0  0  0
  3 29  1  0  0  0  0
  4 10  1  0  0  0  0
  4  5  2  0  0  0  0
  5  6  1  0  0  0  0
  5  7  1  0  0  0  0
  6 30  1  0  0  0  0
  7  8  2  0  0  0  0
  7 23  1  0  0  0  0
  8  9  1  0  0  0  0
  9 10  1  0  0  0  0
  9 12  1  0  0  0  0
 10 11  2  0  0  0  0
 12 13  1  0  0  0  0
 12 31  1  0  0  0  0
 12 32  1  0  0  0  0
 13 21  1  0  0  0  0
 13 14  2  0  0  0  0
 14 15  1  0  0  0  0
 15 20  2  0  0  0  0
 15 16  1  0  0  0  0
 16 17  2  0  0  0  0
 16 33  1  0  0  0  0
 17 18  1  0  0  0  0
 17 34  1  0  0  0  0
 18 19  2  0  0  0  0
 18 35  1  0  0  0  0
 19 20  1  0  0  0  0
 19 22  1  0  0  0  0
 20 21  1  0  0  0  0
 23 24  1  0  0  0  0
 23 36  1  0  0  0  0
 23 37  1  0  0  0  0
 24 25  2  0  0  0  0
 24 26  1  0  0  0  0
M  CHG  1  26  -1
M  END
$$$$
CHEMBL64091
  -OEChem-07121202273D

 38 41  0     1  0  0  0  0  0999 V2000
   -0.0166    1.3759    0.0096 C   0  0  0  0  0  0  0  0  0  0  0  0
    1.1674    2.0924    0.0021 C   0  0  0  0  0  0  0  0  0  0  0  0
    2.3845    1.4303   -0.0142 C   0  0  0  0  0  0  0  0  0  0  0  0
    2.4149    0.0573   -0.0218 C   0  0  0  0  0  0  0  0  0  0  0  0
    1.2222   -0.6781   -0.0131 C   0  0  0  0  0  0  0  0  0  0  0  0
    0.0021   -0.0041    0.0020 C   0  0  0  0  0  0  0  0  0  0  0  0
    1.2814   -2.1507   -0.0191 C   0  0  0  0  0  0  0  0  0  0  0  0
    0.2396   -2.7760   -0.0137 O   0  0  0  0  0  0  0  0  0  0  0  0
    2.4382   -2.8282   -0.0309 N   0  0  0  0  0  0  0  0  0  0  0  0
    3.6414   -2.2201   -0.0400 C   0  0  0  0  0  0  0  0  0  0  0  0
    4.6608   -2.8761   -0.0495 O   0  0  0  0  0  0  0  0  0  0  0  0
    3.7025   -0.7162   -0.0391 C   0  0  2  0  0  0  0  0  0  0  0  0
    4.5481   -0.2730    1.1639 C   0  0  0  0  0  0  0  0  0  0  0  0
    5.7510    0.3771    0.5095 C   0  0  0  0  0  0  0  0  0  0  0  0
    6.7856    0.9256    1.1642 O   0  5  0  0  0  0  0  0  0  0  0  0
    5.6265    0.3211   -0.7845 N   0  0  0  0  0  0  0  0  0  0  0  0
    4.5156   -0.2705   -1.2268 C   0  0  0  0  0  0  0  0  0  0  0  0
    4.2110   -0.4249   -2.3919 O   0  0  0  0  0  0  0  0  0  0  0  0
    2.3929   -4.2925   -0.0335 C   0  0  0  0  0  0  0  0  0  0  0  0
    2.3646   -4.7917   -1.4551 C   0  0  0  0  0  0  0  0  0  0  0  0
    1.1671   -5.1748   -2.0294 C   0  0  0  0  0  0  0  0  0  0  0  0
    1.1403   -5.6323   -3.3333 C   0  0  0  0  0  0  0  0  0  0  0  0
    2.3121   -5.7077   -4.0651 C   0  0  0  0  0  0  0  0  0  0  0  0
    3.5109   -5.3253   -3.4921 C   0  0  0  0  0  0  0  0  0  0  0  0
    3.5371   -4.8612   -2.1879 C   0  0  0  0  0  0  0  0  0  0  0  0
    4.7071   -4.4821   -1.6287 F   0  0  0  0  0  0  0  0  0  0  0  0
    2.2741   -6.3344   -5.8488 Br  0  0  0  0  0  0  0  0  0  0  0  0
   -0.9609    1.8998    0.0260 H   0  0  0  0  0  0  0  0  0  0  0  0
    1.1426    3.1721    0.0087 H   0  0  0  0  0  0  0  0  0  0  0  0
    3.3066    1.9924   -0.0213 H   0  0  0  0  0  0  0  0  0  0  0  0
   -0.9243   -0.5592    0.0077 H   0  0  0  0  0  0  0  0  0  0  0  0
    4.0037    0.4482    1.7735 H   0  0  0  0  0  0  0  0  0  0  0  0
    4.8512   -1.1334    1.7605 H   0  0  0  0  0  0  0  0  0  0  0  0
    3.2757   -4.6842    0.4717 H   0  0  0  0  0  0  0  0  0  0  0  0
    1.4967   -4.6291    0.4878 H   0  0  0  0  0  0  0  0  0  0  0  0
    0.2519   -5.1170   -1.4588 H   0  0  0  0  0  0  0  0  0  0  0  0
    0.2041   -5.9314   -3.7811 H   0  0  0  0  0  0  0  0  0  0  0  0
    4.4258   -5.3849   -4.0629 H   0  0  0  0  0  0  0  0  0  0  0  0
  1  6  2  0  0  0  0
  1  2  1  0  0  0  0
  1 28  1  0  0  0  0
  2  3  2  0  0  0  0
  2 29  1  0  0  0  0
  3  4  1  0  0  0  0
  3 30  1  0  0  0  0
  4 12  1  0  0  0  0
  4  5  2  0  0  0  0
  5  6  1  0  0  0  0
  5  7  1  0  0  0  0
  6 31  1  0  0  0  0
  7  8  2  0  0  0  0
  7  9  1  0  0  0  0
  9 10  1  0  0  0  0
  9 19  1  0  0  0  0
 10 11  2  0  0  0  0
 10 12  1  0  0  0  0
 12 17  1  0  0  0  0
 12 13  1  0  0  0  0
 13 14  1  0  0  0  0
 13 32  1  0  0  0  0
 13 33  1  0  0  0  0
 14 15  1  0  0  0  0
 14 16  2  0  0  0  0
 16 17  1  0  0  0  0
 17 18  2  0  0  0  0
 19 20  1  0  0  0  0
 19 34  1  0  0  0  0
 19 35  1  0  0  0  0
 20 25  2  0  0  0  0
 20 21  1  0  0  0  0
 21 22  2  0  0  0  0
 21 36  1  0  0  0  0
 22 23  1  0  0  0  0
 22 37  1  0  0  0  0
 23 24  2  0  0  0  0
 23 27  1  0  0  0  0
 24 25  1  0  0  0  0
 24 38  1  0  0  0  0
 25 26  1  0  0  0  0
M  CHG  1  15  -1
M  END
$$$$
